REMARK  Name = ../refined-set-2016/4w97/4w97_pocket.pdb
REMARK  282 active torsions:
REMARK  status: ('A' for Active; 'I' for Inactive)
REMARK    1  A    between atoms: _1  and  _3
REMARK    2  A    between atoms: _3  and  _4
REMARK    3  A    between atoms: _3  and  _6
REMARK    4  A    between atoms: _6  and  _7
REMARK    5  A    between atoms: _10  and  _12
REMARK    6  A    between atoms: _12  and  _13
REMARK    7  A    between atoms: _12  and  _15
REMARK    8  A    between atoms: _15  and  _16
REMARK    9  A    between atoms: _22  and  _24
REMARK   10  A    between atoms: _24  and  _25
REMARK   11  A    between atoms: _24  and  _27
REMARK   12  A    between atoms: _27  and  _28
REMARK   13  A    between atoms: _31  and  _33
REMARK   14  A    between atoms: _33  and  _34
REMARK   15  A    between atoms: _33  and  _36
REMARK   16  A    between atoms: _36  and  _37
REMARK   17  A    between atoms: _40  and  _42
REMARK   18  A    between atoms: _42  and  _43
REMARK   19  A    between atoms: _42  and  _45
REMARK   20  A    between atoms: _45  and  _46
REMARK   21  A    between atoms: _52  and  _54
REMARK   22  A    between atoms: _54  and  _55
REMARK   23  A    between atoms: _54  and  _57
REMARK   24  A    between atoms: _57  and  _58
REMARK   25  A    between atoms: _63  and  _64
REMARK   26  A    between atoms: _66  and  _68
REMARK   27  A    between atoms: _68  and  _69
REMARK   28  A    between atoms: _68  and  _71
REMARK   29  A    between atoms: _71  and  _72
REMARK   30  A    between atoms: _74  and  _76
REMARK   31  A    between atoms: _76  and  _77
REMARK   32  A    between atoms: _80  and  _82
REMARK   33  A    between atoms: _82  and  _83
REMARK   34  A    between atoms: _82  and  _85
REMARK   35  A    between atoms: _85  and  _86
REMARK   36  A    between atoms: _89  and  _91
REMARK   37  A    between atoms: _91  and  _92
REMARK   38  A    between atoms: _91  and  _94
REMARK   39  A    between atoms: _94  and  _95
REMARK   40  A    between atoms: _95  and  _96
REMARK   41  A    between atoms: _101  and  _103
REMARK   42  A    between atoms: _103  and  _104
REMARK   43  A    between atoms: _103  and  _106
REMARK   44  A    between atoms: _109  and  _111
REMARK   45  A    between atoms: _111  and  _112
REMARK   46  A    between atoms: _111  and  _114
REMARK   47  A    between atoms: _117  and  _119
REMARK   48  A    between atoms: _119  and  _120
REMARK   49  A    between atoms: _119  and  _122
REMARK   50  A    between atoms: _122  and  _123
REMARK   51  A    between atoms: _126  and  _128
REMARK   52  A    between atoms: _128  and  _129
REMARK   53  A    between atoms: _128  and  _131
REMARK   54  A    between atoms: _131  and  _132
REMARK   55  A    between atoms: _137  and  _138
REMARK   56  A    between atoms: _140  and  _142
REMARK   57  A    between atoms: _142  and  _143
REMARK   58  A    between atoms: _142  and  _145
REMARK   59  A    between atoms: _145  and  _146
REMARK   60  A    between atoms: _146  and  _147
REMARK   61  A    between atoms: _152  and  _154
REMARK   62  A    between atoms: _154  and  _155
REMARK   63  A    between atoms: _154  and  _157
REMARK   64  A    between atoms: _157  and  _158
REMARK   65  A    between atoms: _161  and  _163
REMARK   66  A    between atoms: _163  and  _164
REMARK   67  A    between atoms: _163  and  _166
REMARK   68  A    between atoms: _166  and  _167
REMARK   69  A    between atoms: _167  and  _168
REMARK   70  A    between atoms: _171  and  _173
REMARK   71  A    between atoms: _173  and  _174
REMARK   72  A    between atoms: _177  and  _179
REMARK   73  A    between atoms: _179  and  _180
REMARK   74  A    between atoms: _179  and  _182
REMARK   75  A    between atoms: _182  and  _183
REMARK   76  A    between atoms: _183  and  _184
REMARK   77  A    between atoms: _189  and  _191
REMARK   78  A    between atoms: _191  and  _192
REMARK   79  A    between atoms: _191  and  _194
REMARK   80  A    between atoms: _194  and  _195
REMARK   81  A    between atoms: _195  and  _196
REMARK   82  A    between atoms: _196  and  _197
REMARK   83  A    between atoms: _206  and  _208
REMARK   84  A    between atoms: _208  and  _209
REMARK   85  A    between atoms: _212  and  _214
REMARK   86  A    between atoms: _214  and  _215
REMARK   87  A    between atoms: _214  and  _217
REMARK   88  A    between atoms: _217  and  _218
REMARK   89  A    between atoms: _223  and  _224
REMARK   90  A    between atoms: _226  and  _228
REMARK   91  A    between atoms: _228  and  _229
REMARK   92  A    between atoms: _228  and  _231
REMARK   93  A    between atoms: _231  and  _232
REMARK   94  A    between atoms: _235  and  _237
REMARK   95  A    between atoms: _237  and  _238
REMARK   96  A    between atoms: _237  and  _240
REMARK   97  A    between atoms: _240  and  _241
REMARK   98  A    between atoms: _241  and  _242
REMARK   99  A    between atoms: _245  and  _247
REMARK  100  A    between atoms: _247  and  _248
REMARK  101  A    between atoms: _247  and  _250
REMARK  102  A    between atoms: _250  and  _251
REMARK  103  A    between atoms: _254  and  _256
REMARK  104  A    between atoms: _256  and  _257
REMARK  105  A    between atoms: _256  and  _259
REMARK  106  A    between atoms: _259  and  _260
REMARK  107  A    between atoms: _260  and  _261
REMARK  108  A    between atoms: _261  and  _262
REMARK  109  A    between atoms: _271  and  _273
REMARK  110  A    between atoms: _273  and  _274
REMARK  111  A    between atoms: _273  and  _276
REMARK  112  A    between atoms: _276  and  _277
REMARK  113  A    between atoms: _282  and  _284
REMARK  114  A    between atoms: _284  and  _285
REMARK  115  A    between atoms: _284  and  _287
REMARK  116  A    between atoms: _287  and  _288
REMARK  117  A    between atoms: _288  and  _289
REMARK  118  A    between atoms: _289  and  _290
REMARK  119  A    between atoms: _290  and  _291
REMARK  120  A    between atoms: _295  and  _297
REMARK  121  A    between atoms: _297  and  _298
REMARK  122  A    between atoms: _297  and  _300
REMARK  123  A    between atoms: _300  and  _301
REMARK  124  A    between atoms: _301  and  _302
REMARK  125  A    between atoms: _307  and  _309
REMARK  126  A    between atoms: _309  and  _310
REMARK  127  A    between atoms: _309  and  _312
REMARK  128  A    between atoms: _312  and  _313
REMARK  129  A    between atoms: _313  and  _314
REMARK  130  A    between atoms: _319  and  _321
REMARK  131  A    between atoms: _321  and  _322
REMARK  132  A    between atoms: _321  and  _324
REMARK  133  A    between atoms: _324  and  _325
REMARK  134  A    between atoms: _325  and  _326
REMARK  135  A    between atoms: _326  and  _327
REMARK  136  A    between atoms: _336  and  _338
REMARK  137  A    between atoms: _338  and  _339
REMARK  138  A    between atoms: _338  and  _341
REMARK  139  A    between atoms: _341  and  _342
REMARK  140  A    between atoms: _342  and  _343
REMARK  141  A    between atoms: _345  and  _347
REMARK  142  A    between atoms: _347  and  _348
REMARK  143  A    between atoms: _347  and  _350
REMARK  144  A    between atoms: _350  and  _351
REMARK  145  A    between atoms: _361  and  _363
REMARK  146  A    between atoms: _363  and  _364
REMARK  147  A    between atoms: _363  and  _366
REMARK  148  A    between atoms: _366  and  _367
REMARK  149  A    between atoms: _370  and  _372
REMARK  150  A    between atoms: _372  and  _373
REMARK  151  A    between atoms: _372  and  _375
REMARK  152  A    between atoms: _375  and  _376
REMARK  153  A    between atoms: _379  and  _381
REMARK  154  A    between atoms: _381  and  _382
REMARK  155  A    between atoms: _381  and  _384
REMARK  156  A    between atoms: _384  and  _385
REMARK  157  A    between atoms: _388  and  _390
REMARK  158  A    between atoms: _390  and  _391
REMARK  159  A    between atoms: _390  and  _393
REMARK  160  A    between atoms: _393  and  _394
REMARK  161  A    between atoms: _399  and  _400
REMARK  162  A    between atoms: _402  and  _404
REMARK  163  A    between atoms: _404  and  _405
REMARK  164  A    between atoms: _404  and  _407
REMARK  165  A    between atoms: _407  and  _408
REMARK  166  A    between atoms: _408  and  _409
REMARK  167  A    between atoms: _409  and  _410
REMARK  168  A    between atoms: _419  and  _421
REMARK  169  A    between atoms: _421  and  _422
REMARK  170  A    between atoms: _421  and  _424
REMARK  171  A    between atoms: _424  and  _425
REMARK  172  A    between atoms: _431  and  _433
REMARK  173  A    between atoms: _433  and  _434
REMARK  174  A    between atoms: _433  and  _436
REMARK  175  A    between atoms: _436  and  _437
REMARK  176  A    between atoms: _440  and  _442
REMARK  177  A    between atoms: _442  and  _443
REMARK  178  A    between atoms: _442  and  _445
REMARK  179  A    between atoms: _445  and  _446
REMARK  180  A    between atoms: _446  and  _447
REMARK  181  A    between atoms: _447  and  _448
REMARK  182  A    between atoms: _457  and  _459
REMARK  183  A    between atoms: _459  and  _460
REMARK  184  A    between atoms: _459  and  _462
REMARK  185  A    between atoms: _462  and  _463
REMARK  186  A    between atoms: _466  and  _468
REMARK  187  A    between atoms: _468  and  _469
REMARK  188  A    between atoms: _468  and  _471
REMARK  189  A    between atoms: _471  and  _472
REMARK  190  A    between atoms: _475  and  _477
REMARK  191  A    between atoms: _477  and  _478
REMARK  192  A    between atoms: _477  and  _480
REMARK  193  A    between atoms: _480  and  _481
REMARK  194  A    between atoms: _484  and  _486
REMARK  195  A    between atoms: _486  and  _487
REMARK  196  A    between atoms: _486  and  _489
REMARK  197  A    between atoms: _489  and  _490
REMARK  198  A    between atoms: _500  and  _502
REMARK  199  A    between atoms: _502  and  _503
REMARK  200  A    between atoms: _502  and  _505
REMARK  201  A    between atoms: _508  and  _510
REMARK  202  A    between atoms: _510  and  _511
REMARK  203  A    between atoms: _510  and  _513
REMARK  204  A    between atoms: _513  and  _514
REMARK  205  A    between atoms: _516  and  _518
REMARK  206  A    between atoms: _518  and  _519
REMARK  207  A    between atoms: _518  and  _521
REMARK  208  A    between atoms: _524  and  _526
REMARK  209  A    between atoms: _526  and  _527
REMARK  210  A    between atoms: _526  and  _529
REMARK  211  A    between atoms: _529  and  _530
REMARK  212  A    between atoms: _530  and  _531
REMARK  213  A    between atoms: _531  and  _532
REMARK  214  A    between atoms: _541  and  _543
REMARK  215  A    between atoms: _543  and  _544
REMARK  216  A    between atoms: _543  and  _546
REMARK  217  A    between atoms: _546  and  _547
REMARK  218  A    between atoms: _547  and  _548
REMARK  219  A    between atoms: _551  and  _553
REMARK  220  A    between atoms: _553  and  _554
REMARK  221  A    between atoms: _553  and  _556
REMARK  222  A    between atoms: _556  and  _557
REMARK  223  A    between atoms: _557  and  _558
REMARK  224  A    between atoms: _563  and  _565
REMARK  225  A    between atoms: _565  and  _566
REMARK  226  A    between atoms: _565  and  _568
REMARK  227  A    between atoms: _568  and  _569
REMARK  228  A    between atoms: _572  and  _574
REMARK  229  A    between atoms: _574  and  _575
REMARK  230  A    between atoms: _574  and  _577
REMARK  231  A    between atoms: _580  and  _582
REMARK  232  A    between atoms: _582  and  _583
REMARK  233  A    between atoms: _582  and  _585
REMARK  234  A    between atoms: _585  and  _586
REMARK  235  A    between atoms: _588  and  _590
REMARK  236  A    between atoms: _590  and  _591
REMARK  237  A    between atoms: _590  and  _593
REMARK  238  A    between atoms: _596  and  _598
REMARK  239  A    between atoms: _598  and  _599
REMARK  240  A    between atoms: _598  and  _601
REMARK  241  A    between atoms: _601  and  _602
REMARK  242  A    between atoms: _602  and  _603
REMARK  243  A    between atoms: _603  and  _604
REMARK  244  A    between atoms: _613  and  _615
REMARK  245  A    between atoms: _615  and  _616
REMARK  246  A    between atoms: _615  and  _618
REMARK  247  A    between atoms: _618  and  _619
REMARK  248  A    between atoms: _629  and  _631
REMARK  249  A    between atoms: _631  and  _632
REMARK  250  A    between atoms: _631  and  _634
REMARK  251  A    between atoms: _634  and  _635
REMARK  252  A    between atoms: _640  and  _641
REMARK  253  A    between atoms: _643  and  _645
REMARK  254  A    between atoms: _645  and  _646
REMARK  255  A    between atoms: _645  and  _648
REMARK  256  A    between atoms: _648  and  _649
REMARK  257  A    between atoms: _649  and  _650
REMARK  258  A    between atoms: _650  and  _651
REMARK  259  A    between atoms: _661  and  _662
REMARK  260  A    between atoms: _667  and  _669
REMARK  261  A    between atoms: _669  and  _670
REMARK  262  A    between atoms: _672  and  _674
REMARK  263  A    between atoms: _674  and  _675
REMARK  264  A    between atoms: _678  and  _679
REMARK  265  A    between atoms: _684  and  _686
REMARK  266  A    between atoms: _686  and  _687
REMARK  267  A    between atoms: _686  and  _689
REMARK  268  A    between atoms: _689  and  _690
REMARK  269  A    between atoms: _693  and  _695
REMARK  270  A    between atoms: _695  and  _696
REMARK  271  A    between atoms: _695  and  _698
REMARK  272  A    between atoms: _698  and  _699
REMARK  273  A    between atoms: _702  and  _704
REMARK  274  A    between atoms: _704  and  _705
REMARK  275  A    between atoms: _708  and  _710
REMARK  276  A    between atoms: _710  and  _711
REMARK  277  A    between atoms: _710  and  _713
REMARK  278  A    between atoms: _713  and  _714
REMARK  279  A    between atoms: _714  and  _715
REMARK  280  A    between atoms: _720  and  _722
REMARK  281  A    between atoms: _722  and  _723
REMARK  282  A    between atoms: _722  and  _725
REMARK                            x       y       z     vdW  Elec       q    Type
REMARK                         _______ _______ _______ _____ _____    ______ ____
ROOT
ATOM      1  CA  LEU A   1      -1.371  51.113  28.604  0.00  0.00    +0.133 C 
ENDROOT
BRANCH   1   2
ATOM      2  N   LEU A   1      -1.554  52.192  29.582  0.00  0.00    -0.239 NA
ATOM      3  H   LEU A   1      -1.537  53.188  29.284  0.00  0.00    +0.142 HD
ENDBRANCH   1   2
BRANCH   1   4
ATOM      4  C   LEU A   1      -0.060  50.366  28.764  0.00  0.00    +0.224 C 
ATOM      5  O   LEU A   1      -0.058  49.094  28.668  0.00  0.00    -0.287 OA
ENDBRANCH   1   4
BRANCH   1   6
ATOM      6  CB  LEU A   1      -1.534  51.614  27.190  0.00  0.00    +0.025 C 
BRANCH   6   7
ATOM      7  CG  LEU A   1      -2.918  52.198  26.879  0.00  0.00    +0.002 C 
ATOM      8  CD2 LEU A   1      -4.037  51.125  27.175  0.00  0.00    +0.000 C 
ATOM      9  CD1 LEU A   1      -2.994  52.743  25.449  0.00  0.00    +0.000 C 
ENDBRANCH   6   7
ENDBRANCH   1   6
TORSDOF 4
REMARK  Name = ../refined-set-2016/4w97/4w97_pocket.pdb
REMARK  282 active torsions:
REMARK  status: ('A' for Active; 'I' for Inactive)
REMARK    1  A    between atoms: _1  and  _3
REMARK    2  A    between atoms: _3  and  _4
REMARK    3  A    between atoms: _3  and  _6
REMARK    4  A    between atoms: _6  and  _7
REMARK    5  A    between atoms: _10  and  _12
REMARK    6  A    between atoms: _12  and  _13
REMARK    7  A    between atoms: _12  and  _15
REMARK    8  A    between atoms: _15  and  _16
REMARK    9  A    between atoms: _22  and  _24
REMARK   10  A    between atoms: _24  and  _25
REMARK   11  A    between atoms: _24  and  _27
REMARK   12  A    between atoms: _27  and  _28
REMARK   13  A    between atoms: _31  and  _33
REMARK   14  A    between atoms: _33  and  _34
REMARK   15  A    between atoms: _33  and  _36
REMARK   16  A    between atoms: _36  and  _37
REMARK   17  A    between atoms: _40  and  _42
REMARK   18  A    between atoms: _42  and  _43
REMARK   19  A    between atoms: _42  and  _45
REMARK   20  A    between atoms: _45  and  _46
REMARK   21  A    between atoms: _52  and  _54
REMARK   22  A    between atoms: _54  and  _55
REMARK   23  A    between atoms: _54  and  _57
REMARK   24  A    between atoms: _57  and  _58
REMARK   25  A    between atoms: _63  and  _64
REMARK   26  A    between atoms: _66  and  _68
REMARK   27  A    between atoms: _68  and  _69
REMARK   28  A    between atoms: _68  and  _71
REMARK   29  A    between atoms: _71  and  _72
REMARK   30  A    between atoms: _74  and  _76
REMARK   31  A    between atoms: _76  and  _77
REMARK   32  A    between atoms: _80  and  _82
REMARK   33  A    between atoms: _82  and  _83
REMARK   34  A    between atoms: _82  and  _85
REMARK   35  A    between atoms: _85  and  _86
REMARK   36  A    between atoms: _89  and  _91
REMARK   37  A    between atoms: _91  and  _92
REMARK   38  A    between atoms: _91  and  _94
REMARK   39  A    between atoms: _94  and  _95
REMARK   40  A    between atoms: _95  and  _96
REMARK   41  A    between atoms: _101  and  _103
REMARK   42  A    between atoms: _103  and  _104
REMARK   43  A    between atoms: _103  and  _106
REMARK   44  A    between atoms: _109  and  _111
REMARK   45  A    between atoms: _111  and  _112
REMARK   46  A    between atoms: _111  and  _114
REMARK   47  A    between atoms: _117  and  _119
REMARK   48  A    between atoms: _119  and  _120
REMARK   49  A    between atoms: _119  and  _122
REMARK   50  A    between atoms: _122  and  _123
REMARK   51  A    between atoms: _126  and  _128
REMARK   52  A    between atoms: _128  and  _129
REMARK   53  A    between atoms: _128  and  _131
REMARK   54  A    between atoms: _131  and  _132
REMARK   55  A    between atoms: _137  and  _138
REMARK   56  A    between atoms: _140  and  _142
REMARK   57  A    between atoms: _142  and  _143
REMARK   58  A    between atoms: _142  and  _145
REMARK   59  A    between atoms: _145  and  _146
REMARK   60  A    between atoms: _146  and  _147
REMARK   61  A    between atoms: _152  and  _154
REMARK   62  A    between atoms: _154  and  _155
REMARK   63  A    between atoms: _154  and  _157
REMARK   64  A    between atoms: _157  and  _158
REMARK   65  A    between atoms: _161  and  _163
REMARK   66  A    between atoms: _163  and  _164
REMARK   67  A    between atoms: _163  and  _166
REMARK   68  A    between atoms: _166  and  _167
REMARK   69  A    between atoms: _167  and  _168
REMARK   70  A    between atoms: _171  and  _173
REMARK   71  A    between atoms: _173  and  _174
REMARK   72  A    between atoms: _177  and  _179
REMARK   73  A    between atoms: _179  and  _180
REMARK   74  A    between atoms: _179  and  _182
REMARK   75  A    between atoms: _182  and  _183
REMARK   76  A    between atoms: _183  and  _184
REMARK   77  A    between atoms: _189  and  _191
REMARK   78  A    between atoms: _191  and  _192
REMARK   79  A    between atoms: _191  and  _194
REMARK   80  A    between atoms: _194  and  _195
REMARK   81  A    between atoms: _195  and  _196
REMARK   82  A    between atoms: _196  and  _197
REMARK   83  A    between atoms: _206  and  _208
REMARK   84  A    between atoms: _208  and  _209
REMARK   85  A    between atoms: _212  and  _214
REMARK   86  A    between atoms: _214  and  _215
REMARK   87  A    between atoms: _214  and  _217
REMARK   88  A    between atoms: _217  and  _218
REMARK   89  A    between atoms: _223  and  _224
REMARK   90  A    between atoms: _226  and  _228
REMARK   91  A    between atoms: _228  and  _229
REMARK   92  A    between atoms: _228  and  _231
REMARK   93  A    between atoms: _231  and  _232
REMARK   94  A    between atoms: _235  and  _237
REMARK   95  A    between atoms: _237  and  _238
REMARK   96  A    between atoms: _237  and  _240
REMARK   97  A    between atoms: _240  and  _241
REMARK   98  A    between atoms: _241  and  _242
REMARK   99  A    between atoms: _245  and  _247
REMARK  100  A    between atoms: _247  and  _248
REMARK  101  A    between atoms: _247  and  _250
REMARK  102  A    between atoms: _250  and  _251
REMARK  103  A    between atoms: _254  and  _256
REMARK  104  A    between atoms: _256  and  _257
REMARK  105  A    between atoms: _256  and  _259
REMARK  106  A    between atoms: _259  and  _260
REMARK  107  A    between atoms: _260  and  _261
REMARK  108  A    between atoms: _261  and  _262
REMARK  109  A    between atoms: _271  and  _273
REMARK  110  A    between atoms: _273  and  _274
REMARK  111  A    between atoms: _273  and  _276
REMARK  112  A    between atoms: _276  and  _277
REMARK  113  A    between atoms: _282  and  _284
REMARK  114  A    between atoms: _284  and  _285
REMARK  115  A    between atoms: _284  and  _287
REMARK  116  A    between atoms: _287  and  _288
REMARK  117  A    between atoms: _288  and  _289
REMARK  118  A    between atoms: _289  and  _290
REMARK  119  A    between atoms: _290  and  _291
REMARK  120  A    between atoms: _295  and  _297
REMARK  121  A    between atoms: _297  and  _298
REMARK  122  A    between atoms: _297  and  _300
REMARK  123  A    between atoms: _300  and  _301
REMARK  124  A    between atoms: _301  and  _302
REMARK  125  A    between atoms: _307  and  _309
REMARK  126  A    between atoms: _309  and  _310
REMARK  127  A    between atoms: _309  and  _312
REMARK  128  A    between atoms: _312  and  _313
REMARK  129  A    between atoms: _313  and  _314
REMARK  130  A    between atoms: _319  and  _321
REMARK  131  A    between atoms: _321  and  _322
REMARK  132  A    between atoms: _321  and  _324
REMARK  133  A    between atoms: _324  and  _325
REMARK  134  A    between atoms: _325  and  _326
REMARK  135  A    between atoms: _326  and  _327
REMARK  136  A    between atoms: _336  and  _338
REMARK  137  A    between atoms: _338  and  _339
REMARK  138  A    between atoms: _338  and  _341
REMARK  139  A    between atoms: _341  and  _342
REMARK  140  A    between atoms: _342  and  _343
REMARK  141  A    between atoms: _345  and  _347
REMARK  142  A    between atoms: _347  and  _348
REMARK  143  A    between atoms: _347  and  _350
REMARK  144  A    between atoms: _350  and  _351
REMARK  145  A    between atoms: _361  and  _363
REMARK  146  A    between atoms: _363  and  _364
REMARK  147  A    between atoms: _363  and  _366
REMARK  148  A    between atoms: _366  and  _367
REMARK  149  A    between atoms: _370  and  _372
REMARK  150  A    between atoms: _372  and  _373
REMARK  151  A    between atoms: _372  and  _375
REMARK  152  A    between atoms: _375  and  _376
REMARK  153  A    between atoms: _379  and  _381
REMARK  154  A    between atoms: _381  and  _382
REMARK  155  A    between atoms: _381  and  _384
REMARK  156  A    between atoms: _384  and  _385
REMARK  157  A    between atoms: _388  and  _390
REMARK  158  A    between atoms: _390  and  _391
REMARK  159  A    between atoms: _390  and  _393
REMARK  160  A    between atoms: _393  and  _394
REMARK  161  A    between atoms: _399  and  _400
REMARK  162  A    between atoms: _402  and  _404
REMARK  163  A    between atoms: _404  and  _405
REMARK  164  A    between atoms: _404  and  _407
REMARK  165  A    between atoms: _407  and  _408
REMARK  166  A    between atoms: _408  and  _409
REMARK  167  A    between atoms: _409  and  _410
REMARK  168  A    between atoms: _419  and  _421
REMARK  169  A    between atoms: _421  and  _422
REMARK  170  A    between atoms: _421  and  _424
REMARK  171  A    between atoms: _424  and  _425
REMARK  172  A    between atoms: _431  and  _433
REMARK  173  A    between atoms: _433  and  _434
REMARK  174  A    between atoms: _433  and  _436
REMARK  175  A    between atoms: _436  and  _437
REMARK  176  A    between atoms: _440  and  _442
REMARK  177  A    between atoms: _442  and  _443
REMARK  178  A    between atoms: _442  and  _445
REMARK  179  A    between atoms: _445  and  _446
REMARK  180  A    between atoms: _446  and  _447
REMARK  181  A    between atoms: _447  and  _448
REMARK  182  A    between atoms: _457  and  _459
REMARK  183  A    between atoms: _459  and  _460
REMARK  184  A    between atoms: _459  and  _462
REMARK  185  A    between atoms: _462  and  _463
REMARK  186  A    between atoms: _466  and  _468
REMARK  187  A    between atoms: _468  and  _469
REMARK  188  A    between atoms: _468  and  _471
REMARK  189  A    between atoms: _471  and  _472
REMARK  190  A    between atoms: _475  and  _477
REMARK  191  A    between atoms: _477  and  _478
REMARK  192  A    between atoms: _477  and  _480
REMARK  193  A    between atoms: _480  and  _481
REMARK  194  A    between atoms: _484  and  _486
REMARK  195  A    between atoms: _486  and  _487
REMARK  196  A    between atoms: _486  and  _489
REMARK  197  A    between atoms: _489  and  _490
REMARK  198  A    between atoms: _500  and  _502
REMARK  199  A    between atoms: _502  and  _503
REMARK  200  A    between atoms: _502  and  _505
REMARK  201  A    between atoms: _508  and  _510
REMARK  202  A    between atoms: _510  and  _511
REMARK  203  A    between atoms: _510  and  _513
REMARK  204  A    between atoms: _513  and  _514
REMARK  205  A    between atoms: _516  and  _518
REMARK  206  A    between atoms: _518  and  _519
REMARK  207  A    between atoms: _518  and  _521
REMARK  208  A    between atoms: _524  and  _526
REMARK  209  A    between atoms: _526  and  _527
REMARK  210  A    between atoms: _526  and  _529
REMARK  211  A    between atoms: _529  and  _530
REMARK  212  A    between atoms: _530  and  _531
REMARK  213  A    between atoms: _531  and  _532
REMARK  214  A    between atoms: _541  and  _543
REMARK  215  A    between atoms: _543  and  _544
REMARK  216  A    between atoms: _543  and  _546
REMARK  217  A    between atoms: _546  and  _547
REMARK  218  A    between atoms: _547  and  _548
REMARK  219  A    between atoms: _551  and  _553
REMARK  220  A    between atoms: _553  and  _554
REMARK  221  A    between atoms: _553  and  _556
REMARK  222  A    between atoms: _556  and  _557
REMARK  223  A    between atoms: _557  and  _558
REMARK  224  A    between atoms: _563  and  _565
REMARK  225  A    between atoms: _565  and  _566
REMARK  226  A    between atoms: _565  and  _568
REMARK  227  A    between atoms: _568  and  _569
REMARK  228  A    between atoms: _572  and  _574
REMARK  229  A    between atoms: _574  and  _575
REMARK  230  A    between atoms: _574  and  _577
REMARK  231  A    between atoms: _580  and  _582
REMARK  232  A    between atoms: _582  and  _583
REMARK  233  A    between atoms: _582  and  _585
REMARK  234  A    between atoms: _585  and  _586
REMARK  235  A    between atoms: _588  and  _590
REMARK  236  A    between atoms: _590  and  _591
REMARK  237  A    between atoms: _590  and  _593
REMARK  238  A    between atoms: _596  and  _598
REMARK  239  A    between atoms: _598  and  _599
REMARK  240  A    between atoms: _598  and  _601
REMARK  241  A    between atoms: _601  and  _602
REMARK  242  A    between atoms: _602  and  _603
REMARK  243  A    between atoms: _603  and  _604
REMARK  244  A    between atoms: _613  and  _615
REMARK  245  A    between atoms: _615  and  _616
REMARK  246  A    between atoms: _615  and  _618
REMARK  247  A    between atoms: _618  and  _619
REMARK  248  A    between atoms: _629  and  _631
REMARK  249  A    between atoms: _631  and  _632
REMARK  250  A    between atoms: _631  and  _634
REMARK  251  A    between atoms: _634  and  _635
REMARK  252  A    between atoms: _640  and  _641
REMARK  253  A    between atoms: _643  and  _645
REMARK  254  A    between atoms: _645  and  _646
REMARK  255  A    between atoms: _645  and  _648
REMARK  256  A    between atoms: _648  and  _649
REMARK  257  A    between atoms: _649  and  _650
REMARK  258  A    between atoms: _650  and  _651
REMARK  259  A    between atoms: _661  and  _662
REMARK  260  A    between atoms: _667  and  _669
REMARK  261  A    between atoms: _669  and  _670
REMARK  262  A    between atoms: _672  and  _674
REMARK  263  A    between atoms: _674  and  _675
REMARK  264  A    between atoms: _678  and  _679
REMARK  265  A    between atoms: _684  and  _686
REMARK  266  A    between atoms: _686  and  _687
REMARK  267  A    between atoms: _686  and  _689
REMARK  268  A    between atoms: _689  and  _690
REMARK  269  A    between atoms: _693  and  _695
REMARK  270  A    between atoms: _695  and  _696
REMARK  271  A    between atoms: _695  and  _698
REMARK  272  A    between atoms: _698  and  _699
REMARK  273  A    between atoms: _702  and  _704
REMARK  274  A    between atoms: _704  and  _705
REMARK  275  A    between atoms: _708  and  _710
REMARK  276  A    between atoms: _710  and  _711
REMARK  277  A    between atoms: _710  and  _713
REMARK  278  A    between atoms: _713  and  _714
REMARK  279  A    between atoms: _714  and  _715
REMARK  280  A    between atoms: _720  and  _722
REMARK  281  A    between atoms: _722  and  _723
REMARK  282  A    between atoms: _722  and  _725
REMARK                            x       y       z     vdW  Elec       q    Type
REMARK                         _______ _______ _______ _____ _____    ______ ____
ROOT
ATOM      1  C   PHE A   1      -0.668  45.905  30.534  0.00  0.00    +0.239 C 
ATOM      2  O   PHE A   1      -0.735  44.674  30.787  0.00  0.00    -0.274 OA
ATOM      3  N   LEU A   2      -0.037  46.367  29.478  0.00  0.00    -0.298 N 
ATOM      4  H   LEU A   2      -0.012  47.392  29.303  0.00  0.00    +0.150 HD
ENDROOT
BRANCH   1   5
ATOM      5  CA  PHE A   1      -1.429  46.896  31.385  0.00  0.00    +0.149 C 
BRANCH   5   6
ATOM      6  N   PHE A   1      -0.522  48.028  31.700  0.00  0.00    -0.238 NA
ATOM      7  H   PHE A   1      -0.734  48.983  31.346  0.00  0.00    +0.142 HD
ENDBRANCH   5   6
BRANCH   5   8
ATOM      8  CB  PHE A   1      -2.651  47.423  30.669  0.00  0.00    +0.053 C 
BRANCH   8   9
ATOM      9  CG  PHE A   1      -3.481  46.329  30.091  0.00  0.00    -0.020 A 
ATOM     10  CD2 PHE A   1      -4.086  45.457  30.938  0.00  0.00    -0.004 A 
ATOM     11  CE2 PHE A   1      -4.815  44.394  30.406  0.00  0.00    -0.000 A 
ATOM     12  CZ  PHE A   1      -4.904  44.263  29.055  0.00  0.00    -0.000 A 
ATOM     13  CE1 PHE A   1      -4.339  45.120  28.204  0.00  0.00    -0.000 A 
ATOM     14  CD1 PHE A   1      -3.595  46.198  28.727  0.00  0.00    -0.004 A 
ENDBRANCH   8   9
ENDBRANCH   5   8
ENDBRANCH   1   5
BRANCH   3  15
ATOM     15  CA  LEU A   2       0.636  45.451  28.538  0.00  0.00    +0.137 C 
BRANCH  15  16
ATOM     16  C   LEU A   2       1.834  44.764  29.172  0.00  0.00    +0.227 C 
ATOM     17  O   LEU A   2       2.083  43.580  28.941  0.00  0.00    -0.286 OA
ENDBRANCH  15  16
BRANCH  15  18
ATOM     18  CB  LEU A   2       1.038  46.175  27.258  0.00  0.00    +0.028 C 
BRANCH  18  19
ATOM     19  CG  LEU A   2      -0.180  46.692  26.461  0.00  0.00    +0.002 C 
ATOM     20  CD2 LEU A   2      -1.005  45.520  25.829  0.00  0.00    +0.000 C 
ATOM     21  CD1 LEU A   2       0.362  47.655  25.341  0.00  0.00    +0.000 C 
ENDBRANCH  18  19
ENDBRANCH  15  18
ENDBRANCH   3  15
TORSDOF 8
REMARK  Name = ../refined-set-2016/4w97/4w97_pocket.pdb
REMARK  282 active torsions:
REMARK  status: ('A' for Active; 'I' for Inactive)
REMARK    1  A    between atoms: _1  and  _3
REMARK    2  A    between atoms: _3  and  _4
REMARK    3  A    between atoms: _3  and  _6
REMARK    4  A    between atoms: _6  and  _7
REMARK    5  A    between atoms: _10  and  _12
REMARK    6  A    between atoms: _12  and  _13
REMARK    7  A    between atoms: _12  and  _15
REMARK    8  A    between atoms: _15  and  _16
REMARK    9  A    between atoms: _22  and  _24
REMARK   10  A    between atoms: _24  and  _25
REMARK   11  A    between atoms: _24  and  _27
REMARK   12  A    between atoms: _27  and  _28
REMARK   13  A    between atoms: _31  and  _33
REMARK   14  A    between atoms: _33  and  _34
REMARK   15  A    between atoms: _33  and  _36
REMARK   16  A    between atoms: _36  and  _37
REMARK   17  A    between atoms: _40  and  _42
REMARK   18  A    between atoms: _42  and  _43
REMARK   19  A    between atoms: _42  and  _45
REMARK   20  A    between atoms: _45  and  _46
REMARK   21  A    between atoms: _52  and  _54
REMARK   22  A    between atoms: _54  and  _55
REMARK   23  A    between atoms: _54  and  _57
REMARK   24  A    between atoms: _57  and  _58
REMARK   25  A    between atoms: _63  and  _64
REMARK   26  A    between atoms: _66  and  _68
REMARK   27  A    between atoms: _68  and  _69
REMARK   28  A    between atoms: _68  and  _71
REMARK   29  A    between atoms: _71  and  _72
REMARK   30  A    between atoms: _74  and  _76
REMARK   31  A    between atoms: _76  and  _77
REMARK   32  A    between atoms: _80  and  _82
REMARK   33  A    between atoms: _82  and  _83
REMARK   34  A    between atoms: _82  and  _85
REMARK   35  A    between atoms: _85  and  _86
REMARK   36  A    between atoms: _89  and  _91
REMARK   37  A    between atoms: _91  and  _92
REMARK   38  A    between atoms: _91  and  _94
REMARK   39  A    between atoms: _94  and  _95
REMARK   40  A    between atoms: _95  and  _96
REMARK   41  A    between atoms: _101  and  _103
REMARK   42  A    between atoms: _103  and  _104
REMARK   43  A    between atoms: _103  and  _106
REMARK   44  A    between atoms: _109  and  _111
REMARK   45  A    between atoms: _111  and  _112
REMARK   46  A    between atoms: _111  and  _114
REMARK   47  A    between atoms: _117  and  _119
REMARK   48  A    between atoms: _119  and  _120
REMARK   49  A    between atoms: _119  and  _122
REMARK   50  A    between atoms: _122  and  _123
REMARK   51  A    between atoms: _126  and  _128
REMARK   52  A    between atoms: _128  and  _129
REMARK   53  A    between atoms: _128  and  _131
REMARK   54  A    between atoms: _131  and  _132
REMARK   55  A    between atoms: _137  and  _138
REMARK   56  A    between atoms: _140  and  _142
REMARK   57  A    between atoms: _142  and  _143
REMARK   58  A    between atoms: _142  and  _145
REMARK   59  A    between atoms: _145  and  _146
REMARK   60  A    between atoms: _146  and  _147
REMARK   61  A    between atoms: _152  and  _154
REMARK   62  A    between atoms: _154  and  _155
REMARK   63  A    between atoms: _154  and  _157
REMARK   64  A    between atoms: _157  and  _158
REMARK   65  A    between atoms: _161  and  _163
REMARK   66  A    between atoms: _163  and  _164
REMARK   67  A    between atoms: _163  and  _166
REMARK   68  A    between atoms: _166  and  _167
REMARK   69  A    between atoms: _167  and  _168
REMARK   70  A    between atoms: _171  and  _173
REMARK   71  A    between atoms: _173  and  _174
REMARK   72  A    between atoms: _177  and  _179
REMARK   73  A    between atoms: _179  and  _180
REMARK   74  A    between atoms: _179  and  _182
REMARK   75  A    between atoms: _182  and  _183
REMARK   76  A    between atoms: _183  and  _184
REMARK   77  A    between atoms: _189  and  _191
REMARK   78  A    between atoms: _191  and  _192
REMARK   79  A    between atoms: _191  and  _194
REMARK   80  A    between atoms: _194  and  _195
REMARK   81  A    between atoms: _195  and  _196
REMARK   82  A    between atoms: _196  and  _197
REMARK   83  A    between atoms: _206  and  _208
REMARK   84  A    between atoms: _208  and  _209
REMARK   85  A    between atoms: _212  and  _214
REMARK   86  A    between atoms: _214  and  _215
REMARK   87  A    between atoms: _214  and  _217
REMARK   88  A    between atoms: _217  and  _218
REMARK   89  A    between atoms: _223  and  _224
REMARK   90  A    between atoms: _226  and  _228
REMARK   91  A    between atoms: _228  and  _229
REMARK   92  A    between atoms: _228  and  _231
REMARK   93  A    between atoms: _231  and  _232
REMARK   94  A    between atoms: _235  and  _237
REMARK   95  A    between atoms: _237  and  _238
REMARK   96  A    between atoms: _237  and  _240
REMARK   97  A    between atoms: _240  and  _241
REMARK   98  A    between atoms: _241  and  _242
REMARK   99  A    between atoms: _245  and  _247
REMARK  100  A    between atoms: _247  and  _248
REMARK  101  A    between atoms: _247  and  _250
REMARK  102  A    between atoms: _250  and  _251
REMARK  103  A    between atoms: _254  and  _256
REMARK  104  A    between atoms: _256  and  _257
REMARK  105  A    between atoms: _256  and  _259
REMARK  106  A    between atoms: _259  and  _260
REMARK  107  A    between atoms: _260  and  _261
REMARK  108  A    between atoms: _261  and  _262
REMARK  109  A    between atoms: _271  and  _273
REMARK  110  A    between atoms: _273  and  _274
REMARK  111  A    between atoms: _273  and  _276
REMARK  112  A    between atoms: _276  and  _277
REMARK  113  A    between atoms: _282  and  _284
REMARK  114  A    between atoms: _284  and  _285
REMARK  115  A    between atoms: _284  and  _287
REMARK  116  A    between atoms: _287  and  _288
REMARK  117  A    between atoms: _288  and  _289
REMARK  118  A    between atoms: _289  and  _290
REMARK  119  A    between atoms: _290  and  _291
REMARK  120  A    between atoms: _295  and  _297
REMARK  121  A    between atoms: _297  and  _298
REMARK  122  A    between atoms: _297  and  _300
REMARK  123  A    between atoms: _300  and  _301
REMARK  124  A    between atoms: _301  and  _302
REMARK  125  A    between atoms: _307  and  _309
REMARK  126  A    between atoms: _309  and  _310
REMARK  127  A    between atoms: _309  and  _312
REMARK  128  A    between atoms: _312  and  _313
REMARK  129  A    between atoms: _313  and  _314
REMARK  130  A    between atoms: _319  and  _321
REMARK  131  A    between atoms: _321  and  _322
REMARK  132  A    between atoms: _321  and  _324
REMARK  133  A    between atoms: _324  and  _325
REMARK  134  A    between atoms: _325  and  _326
REMARK  135  A    between atoms: _326  and  _327
REMARK  136  A    between atoms: _336  and  _338
REMARK  137  A    between atoms: _338  and  _339
REMARK  138  A    between atoms: _338  and  _341
REMARK  139  A    between atoms: _341  and  _342
REMARK  140  A    between atoms: _342  and  _343
REMARK  141  A    between atoms: _345  and  _347
REMARK  142  A    between atoms: _347  and  _348
REMARK  143  A    between atoms: _347  and  _350
REMARK  144  A    between atoms: _350  and  _351
REMARK  145  A    between atoms: _361  and  _363
REMARK  146  A    between atoms: _363  and  _364
REMARK  147  A    between atoms: _363  and  _366
REMARK  148  A    between atoms: _366  and  _367
REMARK  149  A    between atoms: _370  and  _372
REMARK  150  A    between atoms: _372  and  _373
REMARK  151  A    between atoms: _372  and  _375
REMARK  152  A    between atoms: _375  and  _376
REMARK  153  A    between atoms: _379  and  _381
REMARK  154  A    between atoms: _381  and  _382
REMARK  155  A    between atoms: _381  and  _384
REMARK  156  A    between atoms: _384  and  _385
REMARK  157  A    between atoms: _388  and  _390
REMARK  158  A    between atoms: _390  and  _391
REMARK  159  A    between atoms: _390  and  _393
REMARK  160  A    between atoms: _393  and  _394
REMARK  161  A    between atoms: _399  and  _400
REMARK  162  A    between atoms: _402  and  _404
REMARK  163  A    between atoms: _404  and  _405
REMARK  164  A    between atoms: _404  and  _407
REMARK  165  A    between atoms: _407  and  _408
REMARK  166  A    between atoms: _408  and  _409
REMARK  167  A    between atoms: _409  and  _410
REMARK  168  A    between atoms: _419  and  _421
REMARK  169  A    between atoms: _421  and  _422
REMARK  170  A    between atoms: _421  and  _424
REMARK  171  A    between atoms: _424  and  _425
REMARK  172  A    between atoms: _431  and  _433
REMARK  173  A    between atoms: _433  and  _434
REMARK  174  A    between atoms: _433  and  _436
REMARK  175  A    between atoms: _436  and  _437
REMARK  176  A    between atoms: _440  and  _442
REMARK  177  A    between atoms: _442  and  _443
REMARK  178  A    between atoms: _442  and  _445
REMARK  179  A    between atoms: _445  and  _446
REMARK  180  A    between atoms: _446  and  _447
REMARK  181  A    between atoms: _447  and  _448
REMARK  182  A    between atoms: _457  and  _459
REMARK  183  A    between atoms: _459  and  _460
REMARK  184  A    between atoms: _459  and  _462
REMARK  185  A    between atoms: _462  and  _463
REMARK  186  A    between atoms: _466  and  _468
REMARK  187  A    between atoms: _468  and  _469
REMARK  188  A    between atoms: _468  and  _471
REMARK  189  A    between atoms: _471  and  _472
REMARK  190  A    between atoms: _475  and  _477
REMARK  191  A    between atoms: _477  and  _478
REMARK  192  A    between atoms: _477  and  _480
REMARK  193  A    between atoms: _480  and  _481
REMARK  194  A    between atoms: _484  and  _486
REMARK  195  A    between atoms: _486  and  _487
REMARK  196  A    between atoms: _486  and  _489
REMARK  197  A    between atoms: _489  and  _490
REMARK  198  A    between atoms: _500  and  _502
REMARK  199  A    between atoms: _502  and  _503
REMARK  200  A    between atoms: _502  and  _505
REMARK  201  A    between atoms: _508  and  _510
REMARK  202  A    between atoms: _510  and  _511
REMARK  203  A    between atoms: _510  and  _513
REMARK  204  A    between atoms: _513  and  _514
REMARK  205  A    between atoms: _516  and  _518
REMARK  206  A    between atoms: _518  and  _519
REMARK  207  A    between atoms: _518  and  _521
REMARK  208  A    between atoms: _524  and  _526
REMARK  209  A    between atoms: _526  and  _527
REMARK  210  A    between atoms: _526  and  _529
REMARK  211  A    between atoms: _529  and  _530
REMARK  212  A    between atoms: _530  and  _531
REMARK  213  A    between atoms: _531  and  _532
REMARK  214  A    between atoms: _541  and  _543
REMARK  215  A    between atoms: _543  and  _544
REMARK  216  A    between atoms: _543  and  _546
REMARK  217  A    between atoms: _546  and  _547
REMARK  218  A    between atoms: _547  and  _548
REMARK  219  A    between atoms: _551  and  _553
REMARK  220  A    between atoms: _553  and  _554
REMARK  221  A    between atoms: _553  and  _556
REMARK  222  A    between atoms: _556  and  _557
REMARK  223  A    between atoms: _557  and  _558
REMARK  224  A    between atoms: _563  and  _565
REMARK  225  A    between atoms: _565  and  _566
REMARK  226  A    between atoms: _565  and  _568
REMARK  227  A    between atoms: _568  and  _569
REMARK  228  A    between atoms: _572  and  _574
REMARK  229  A    between atoms: _574  and  _575
REMARK  230  A    between atoms: _574  and  _577
REMARK  231  A    between atoms: _580  and  _582
REMARK  232  A    between atoms: _582  and  _583
REMARK  233  A    between atoms: _582  and  _585
REMARK  234  A    between atoms: _585  and  _586
REMARK  235  A    between atoms: _588  and  _590
REMARK  236  A    between atoms: _590  and  _591
REMARK  237  A    between atoms: _590  and  _593
REMARK  238  A    between atoms: _596  and  _598
REMARK  239  A    between atoms: _598  and  _599
REMARK  240  A    between atoms: _598  and  _601
REMARK  241  A    between atoms: _601  and  _602
REMARK  242  A    between atoms: _602  and  _603
REMARK  243  A    between atoms: _603  and  _604
REMARK  244  A    between atoms: _613  and  _615
REMARK  245  A    between atoms: _615  and  _616
REMARK  246  A    between atoms: _615  and  _618
REMARK  247  A    between atoms: _618  and  _619
REMARK  248  A    between atoms: _629  and  _631
REMARK  249  A    between atoms: _631  and  _632
REMARK  250  A    between atoms: _631  and  _634
REMARK  251  A    between atoms: _634  and  _635
REMARK  252  A    between atoms: _640  and  _641
REMARK  253  A    between atoms: _643  and  _645
REMARK  254  A    between atoms: _645  and  _646
REMARK  255  A    between atoms: _645  and  _648
REMARK  256  A    between atoms: _648  and  _649
REMARK  257  A    between atoms: _649  and  _650
REMARK  258  A    between atoms: _650  and  _651
REMARK  259  A    between atoms: _661  and  _662
REMARK  260  A    between atoms: _667  and  _669
REMARK  261  A    between atoms: _669  and  _670
REMARK  262  A    between atoms: _672  and  _674
REMARK  263  A    between atoms: _674  and  _675
REMARK  264  A    between atoms: _678  and  _679
REMARK  265  A    between atoms: _684  and  _686
REMARK  266  A    between atoms: _686  and  _687
REMARK  267  A    between atoms: _686  and  _689
REMARK  268  A    between atoms: _689  and  _690
REMARK  269  A    between atoms: _693  and  _695
REMARK  270  A    between atoms: _695  and  _696
REMARK  271  A    between atoms: _695  and  _698
REMARK  272  A    between atoms: _698  and  _699
REMARK  273  A    between atoms: _702  and  _704
REMARK  274  A    between atoms: _704  and  _705
REMARK  275  A    between atoms: _708  and  _710
REMARK  276  A    between atoms: _710  and  _711
REMARK  277  A    between atoms: _710  and  _713
REMARK  278  A    between atoms: _713  and  _714
REMARK  279  A    between atoms: _714  and  _715
REMARK  280  A    between atoms: _720  and  _722
REMARK  281  A    between atoms: _722  and  _723
REMARK  282  A    between atoms: _722  and  _725
REMARK                            x       y       z     vdW  Elec       q    Type
REMARK                         _______ _______ _______ _____ _____    ______ ____
ROOT
ATOM      1  C   LEU A   1       0.704  40.096  29.812  0.00  0.00    +0.238 C 
ATOM      2  O   LEU A   1       0.609  38.839  29.822  0.00  0.00    -0.274 OA
ATOM      3  N   PHE A   2       1.757  40.739  29.291  0.00  0.00    -0.298 N 
ATOM      4  H   PHE A   2       1.847  41.770  29.390  0.00  0.00    +0.150 HD
ENDROOT
BRANCH   1   5
ATOM      5  CA  LEU A   1      -0.356  40.951  30.458  0.00  0.00    +0.145 C 
BRANCH   5   6
ATOM      6  N   LEU A   1       0.258  42.023  31.261  0.00  0.00    -0.238 NA
ATOM      7  H   LEU A   1       0.158  43.015  30.965  0.00  0.00    +0.142 HD
ENDBRANCH   5   6
BRANCH   5   8
ATOM      8  CB  LEU A   1      -1.231  41.564  29.379  0.00  0.00    +0.026 C 
BRANCH   8   9
ATOM      9  CG  LEU A   1      -1.857  40.584  28.385  0.00  0.00    +0.002 C 
ATOM     10  CD2 LEU A   1      -2.854  39.685  29.141  0.00  0.00    +0.000 C 
ATOM     11  CD1 LEU A   1      -2.466  41.321  27.247  0.00  0.00    +0.000 C 
ENDBRANCH   8   9
ENDBRANCH   5   8
ENDBRANCH   1   5
BRANCH   3  12
ATOM     12  CA  PHE A   2       2.782  39.968  28.578  0.00  0.00    +0.141 C 
BRANCH  12  13
ATOM     13  C   PHE A   2       3.671  39.246  29.568  0.00  0.00    +0.227 C 
ATOM     14  O   PHE A   2       4.231  38.206  29.216  0.00  0.00    -0.286 OA
ENDBRANCH  12  13
BRANCH  12  15
ATOM     15  CB  PHE A   2       3.588  40.881  27.587  0.00  0.00    +0.054 C 
BRANCH  15  16
ATOM     16  CG  PHE A   2       2.800  41.103  26.283  0.00  0.00    -0.020 A 
ATOM     17  CD2 PHE A   2       1.679  41.935  26.262  0.00  0.00    -0.004 A 
ATOM     18  CE2 PHE A   2       0.924  42.099  25.087  0.00  0.00    -0.000 A 
ATOM     19  CZ  PHE A   2       1.316  41.443  23.919  0.00  0.00    -0.000 A 
ATOM     20  CE1 PHE A   2       2.443  40.590  23.932  0.00  0.00    -0.000 A 
ATOM     21  CD1 PHE A   2       3.161  40.417  25.115  0.00  0.00    -0.004 A 
ENDBRANCH  15  16
ENDBRANCH  12  15
ENDBRANCH   3  12
TORSDOF 8
REMARK  Name = ../refined-set-2016/4w97/4w97_pocket.pdb
REMARK  282 active torsions:
REMARK  status: ('A' for Active; 'I' for Inactive)
REMARK    1  A    between atoms: _1  and  _3
REMARK    2  A    between atoms: _3  and  _4
REMARK    3  A    between atoms: _3  and  _6
REMARK    4  A    between atoms: _6  and  _7
REMARK    5  A    between atoms: _10  and  _12
REMARK    6  A    between atoms: _12  and  _13
REMARK    7  A    between atoms: _12  and  _15
REMARK    8  A    between atoms: _15  and  _16
REMARK    9  A    between atoms: _22  and  _24
REMARK   10  A    between atoms: _24  and  _25
REMARK   11  A    between atoms: _24  and  _27
REMARK   12  A    between atoms: _27  and  _28
REMARK   13  A    between atoms: _31  and  _33
REMARK   14  A    between atoms: _33  and  _34
REMARK   15  A    between atoms: _33  and  _36
REMARK   16  A    between atoms: _36  and  _37
REMARK   17  A    between atoms: _40  and  _42
REMARK   18  A    between atoms: _42  and  _43
REMARK   19  A    between atoms: _42  and  _45
REMARK   20  A    between atoms: _45  and  _46
REMARK   21  A    between atoms: _52  and  _54
REMARK   22  A    between atoms: _54  and  _55
REMARK   23  A    between atoms: _54  and  _57
REMARK   24  A    between atoms: _57  and  _58
REMARK   25  A    between atoms: _63  and  _64
REMARK   26  A    between atoms: _66  and  _68
REMARK   27  A    between atoms: _68  and  _69
REMARK   28  A    between atoms: _68  and  _71
REMARK   29  A    between atoms: _71  and  _72
REMARK   30  A    between atoms: _74  and  _76
REMARK   31  A    between atoms: _76  and  _77
REMARK   32  A    between atoms: _80  and  _82
REMARK   33  A    between atoms: _82  and  _83
REMARK   34  A    between atoms: _82  and  _85
REMARK   35  A    between atoms: _85  and  _86
REMARK   36  A    between atoms: _89  and  _91
REMARK   37  A    between atoms: _91  and  _92
REMARK   38  A    between atoms: _91  and  _94
REMARK   39  A    between atoms: _94  and  _95
REMARK   40  A    between atoms: _95  and  _96
REMARK   41  A    between atoms: _101  and  _103
REMARK   42  A    between atoms: _103  and  _104
REMARK   43  A    between atoms: _103  and  _106
REMARK   44  A    between atoms: _109  and  _111
REMARK   45  A    between atoms: _111  and  _112
REMARK   46  A    between atoms: _111  and  _114
REMARK   47  A    between atoms: _117  and  _119
REMARK   48  A    between atoms: _119  and  _120
REMARK   49  A    between atoms: _119  and  _122
REMARK   50  A    between atoms: _122  and  _123
REMARK   51  A    between atoms: _126  and  _128
REMARK   52  A    between atoms: _128  and  _129
REMARK   53  A    between atoms: _128  and  _131
REMARK   54  A    between atoms: _131  and  _132
REMARK   55  A    between atoms: _137  and  _138
REMARK   56  A    between atoms: _140  and  _142
REMARK   57  A    between atoms: _142  and  _143
REMARK   58  A    between atoms: _142  and  _145
REMARK   59  A    between atoms: _145  and  _146
REMARK   60  A    between atoms: _146  and  _147
REMARK   61  A    between atoms: _152  and  _154
REMARK   62  A    between atoms: _154  and  _155
REMARK   63  A    between atoms: _154  and  _157
REMARK   64  A    between atoms: _157  and  _158
REMARK   65  A    between atoms: _161  and  _163
REMARK   66  A    between atoms: _163  and  _164
REMARK   67  A    between atoms: _163  and  _166
REMARK   68  A    between atoms: _166  and  _167
REMARK   69  A    between atoms: _167  and  _168
REMARK   70  A    between atoms: _171  and  _173
REMARK   71  A    between atoms: _173  and  _174
REMARK   72  A    between atoms: _177  and  _179
REMARK   73  A    between atoms: _179  and  _180
REMARK   74  A    between atoms: _179  and  _182
REMARK   75  A    between atoms: _182  and  _183
REMARK   76  A    between atoms: _183  and  _184
REMARK   77  A    between atoms: _189  and  _191
REMARK   78  A    between atoms: _191  and  _192
REMARK   79  A    between atoms: _191  and  _194
REMARK   80  A    between atoms: _194  and  _195
REMARK   81  A    between atoms: _195  and  _196
REMARK   82  A    between atoms: _196  and  _197
REMARK   83  A    between atoms: _206  and  _208
REMARK   84  A    between atoms: _208  and  _209
REMARK   85  A    between atoms: _212  and  _214
REMARK   86  A    between atoms: _214  and  _215
REMARK   87  A    between atoms: _214  and  _217
REMARK   88  A    between atoms: _217  and  _218
REMARK   89  A    between atoms: _223  and  _224
REMARK   90  A    between atoms: _226  and  _228
REMARK   91  A    between atoms: _228  and  _229
REMARK   92  A    between atoms: _228  and  _231
REMARK   93  A    between atoms: _231  and  _232
REMARK   94  A    between atoms: _235  and  _237
REMARK   95  A    between atoms: _237  and  _238
REMARK   96  A    between atoms: _237  and  _240
REMARK   97  A    between atoms: _240  and  _241
REMARK   98  A    between atoms: _241  and  _242
REMARK   99  A    between atoms: _245  and  _247
REMARK  100  A    between atoms: _247  and  _248
REMARK  101  A    between atoms: _247  and  _250
REMARK  102  A    between atoms: _250  and  _251
REMARK  103  A    between atoms: _254  and  _256
REMARK  104  A    between atoms: _256  and  _257
REMARK  105  A    between atoms: _256  and  _259
REMARK  106  A    between atoms: _259  and  _260
REMARK  107  A    between atoms: _260  and  _261
REMARK  108  A    between atoms: _261  and  _262
REMARK  109  A    between atoms: _271  and  _273
REMARK  110  A    between atoms: _273  and  _274
REMARK  111  A    between atoms: _273  and  _276
REMARK  112  A    between atoms: _276  and  _277
REMARK  113  A    between atoms: _282  and  _284
REMARK  114  A    between atoms: _284  and  _285
REMARK  115  A    between atoms: _284  and  _287
REMARK  116  A    between atoms: _287  and  _288
REMARK  117  A    between atoms: _288  and  _289
REMARK  118  A    between atoms: _289  and  _290
REMARK  119  A    between atoms: _290  and  _291
REMARK  120  A    between atoms: _295  and  _297
REMARK  121  A    between atoms: _297  and  _298
REMARK  122  A    between atoms: _297  and  _300
REMARK  123  A    between atoms: _300  and  _301
REMARK  124  A    between atoms: _301  and  _302
REMARK  125  A    between atoms: _307  and  _309
REMARK  126  A    between atoms: _309  and  _310
REMARK  127  A    between atoms: _309  and  _312
REMARK  128  A    between atoms: _312  and  _313
REMARK  129  A    between atoms: _313  and  _314
REMARK  130  A    between atoms: _319  and  _321
REMARK  131  A    between atoms: _321  and  _322
REMARK  132  A    between atoms: _321  and  _324
REMARK  133  A    between atoms: _324  and  _325
REMARK  134  A    between atoms: _325  and  _326
REMARK  135  A    between atoms: _326  and  _327
REMARK  136  A    between atoms: _336  and  _338
REMARK  137  A    between atoms: _338  and  _339
REMARK  138  A    between atoms: _338  and  _341
REMARK  139  A    between atoms: _341  and  _342
REMARK  140  A    between atoms: _342  and  _343
REMARK  141  A    between atoms: _345  and  _347
REMARK  142  A    between atoms: _347  and  _348
REMARK  143  A    between atoms: _347  and  _350
REMARK  144  A    between atoms: _350  and  _351
REMARK  145  A    between atoms: _361  and  _363
REMARK  146  A    between atoms: _363  and  _364
REMARK  147  A    between atoms: _363  and  _366
REMARK  148  A    between atoms: _366  and  _367
REMARK  149  A    between atoms: _370  and  _372
REMARK  150  A    between atoms: _372  and  _373
REMARK  151  A    between atoms: _372  and  _375
REMARK  152  A    between atoms: _375  and  _376
REMARK  153  A    between atoms: _379  and  _381
REMARK  154  A    between atoms: _381  and  _382
REMARK  155  A    between atoms: _381  and  _384
REMARK  156  A    between atoms: _384  and  _385
REMARK  157  A    between atoms: _388  and  _390
REMARK  158  A    between atoms: _390  and  _391
REMARK  159  A    between atoms: _390  and  _393
REMARK  160  A    between atoms: _393  and  _394
REMARK  161  A    between atoms: _399  and  _400
REMARK  162  A    between atoms: _402  and  _404
REMARK  163  A    between atoms: _404  and  _405
REMARK  164  A    between atoms: _404  and  _407
REMARK  165  A    between atoms: _407  and  _408
REMARK  166  A    between atoms: _408  and  _409
REMARK  167  A    between atoms: _409  and  _410
REMARK  168  A    between atoms: _419  and  _421
REMARK  169  A    between atoms: _421  and  _422
REMARK  170  A    between atoms: _421  and  _424
REMARK  171  A    between atoms: _424  and  _425
REMARK  172  A    between atoms: _431  and  _433
REMARK  173  A    between atoms: _433  and  _434
REMARK  174  A    between atoms: _433  and  _436
REMARK  175  A    between atoms: _436  and  _437
REMARK  176  A    between atoms: _440  and  _442
REMARK  177  A    between atoms: _442  and  _443
REMARK  178  A    between atoms: _442  and  _445
REMARK  179  A    between atoms: _445  and  _446
REMARK  180  A    between atoms: _446  and  _447
REMARK  181  A    between atoms: _447  and  _448
REMARK  182  A    between atoms: _457  and  _459
REMARK  183  A    between atoms: _459  and  _460
REMARK  184  A    between atoms: _459  and  _462
REMARK  185  A    between atoms: _462  and  _463
REMARK  186  A    between atoms: _466  and  _468
REMARK  187  A    between atoms: _468  and  _469
REMARK  188  A    between atoms: _468  and  _471
REMARK  189  A    between atoms: _471  and  _472
REMARK  190  A    between atoms: _475  and  _477
REMARK  191  A    between atoms: _477  and  _478
REMARK  192  A    between atoms: _477  and  _480
REMARK  193  A    between atoms: _480  and  _481
REMARK  194  A    between atoms: _484  and  _486
REMARK  195  A    between atoms: _486  and  _487
REMARK  196  A    between atoms: _486  and  _489
REMARK  197  A    between atoms: _489  and  _490
REMARK  198  A    between atoms: _500  and  _502
REMARK  199  A    between atoms: _502  and  _503
REMARK  200  A    between atoms: _502  and  _505
REMARK  201  A    between atoms: _508  and  _510
REMARK  202  A    between atoms: _510  and  _511
REMARK  203  A    between atoms: _510  and  _513
REMARK  204  A    between atoms: _513  and  _514
REMARK  205  A    between atoms: _516  and  _518
REMARK  206  A    between atoms: _518  and  _519
REMARK  207  A    between atoms: _518  and  _521
REMARK  208  A    between atoms: _524  and  _526
REMARK  209  A    between atoms: _526  and  _527
REMARK  210  A    between atoms: _526  and  _529
REMARK  211  A    between atoms: _529  and  _530
REMARK  212  A    between atoms: _530  and  _531
REMARK  213  A    between atoms: _531  and  _532
REMARK  214  A    between atoms: _541  and  _543
REMARK  215  A    between atoms: _543  and  _544
REMARK  216  A    between atoms: _543  and  _546
REMARK  217  A    between atoms: _546  and  _547
REMARK  218  A    between atoms: _547  and  _548
REMARK  219  A    between atoms: _551  and  _553
REMARK  220  A    between atoms: _553  and  _554
REMARK  221  A    between atoms: _553  and  _556
REMARK  222  A    between atoms: _556  and  _557
REMARK  223  A    between atoms: _557  and  _558
REMARK  224  A    between atoms: _563  and  _565
REMARK  225  A    between atoms: _565  and  _566
REMARK  226  A    between atoms: _565  and  _568
REMARK  227  A    between atoms: _568  and  _569
REMARK  228  A    between atoms: _572  and  _574
REMARK  229  A    between atoms: _574  and  _575
REMARK  230  A    between atoms: _574  and  _577
REMARK  231  A    between atoms: _580  and  _582
REMARK  232  A    between atoms: _582  and  _583
REMARK  233  A    between atoms: _582  and  _585
REMARK  234  A    between atoms: _585  and  _586
REMARK  235  A    between atoms: _588  and  _590
REMARK  236  A    between atoms: _590  and  _591
REMARK  237  A    between atoms: _590  and  _593
REMARK  238  A    between atoms: _596  and  _598
REMARK  239  A    between atoms: _598  and  _599
REMARK  240  A    between atoms: _598  and  _601
REMARK  241  A    between atoms: _601  and  _602
REMARK  242  A    between atoms: _602  and  _603
REMARK  243  A    between atoms: _603  and  _604
REMARK  244  A    between atoms: _613  and  _615
REMARK  245  A    between atoms: _615  and  _616
REMARK  246  A    between atoms: _615  and  _618
REMARK  247  A    between atoms: _618  and  _619
REMARK  248  A    between atoms: _629  and  _631
REMARK  249  A    between atoms: _631  and  _632
REMARK  250  A    between atoms: _631  and  _634
REMARK  251  A    between atoms: _634  and  _635
REMARK  252  A    between atoms: _640  and  _641
REMARK  253  A    between atoms: _643  and  _645
REMARK  254  A    between atoms: _645  and  _646
REMARK  255  A    between atoms: _645  and  _648
REMARK  256  A    between atoms: _648  and  _649
REMARK  257  A    between atoms: _649  and  _650
REMARK  258  A    between atoms: _650  and  _651
REMARK  259  A    between atoms: _661  and  _662
REMARK  260  A    between atoms: _667  and  _669
REMARK  261  A    between atoms: _669  and  _670
REMARK  262  A    between atoms: _672  and  _674
REMARK  263  A    between atoms: _674  and  _675
REMARK  264  A    between atoms: _678  and  _679
REMARK  265  A    between atoms: _684  and  _686
REMARK  266  A    between atoms: _686  and  _687
REMARK  267  A    between atoms: _686  and  _689
REMARK  268  A    between atoms: _689  and  _690
REMARK  269  A    between atoms: _693  and  _695
REMARK  270  A    between atoms: _695  and  _696
REMARK  271  A    between atoms: _695  and  _698
REMARK  272  A    between atoms: _698  and  _699
REMARK  273  A    between atoms: _702  and  _704
REMARK  274  A    between atoms: _704  and  _705
REMARK  275  A    between atoms: _708  and  _710
REMARK  276  A    between atoms: _710  and  _711
REMARK  277  A    between atoms: _710  and  _713
REMARK  278  A    between atoms: _713  and  _714
REMARK  279  A    between atoms: _714  and  _715
REMARK  280  A    between atoms: _720  and  _722
REMARK  281  A    between atoms: _722  and  _723
REMARK  282  A    between atoms: _722  and  _725
REMARK                            x       y       z     vdW  Elec       q    Type
REMARK                         _______ _______ _______ _____ _____    ______ ____
ROOT
ATOM      1  CG  TYR A   1       0.470  36.610  27.156  0.00  0.00    -0.020 A 
ATOM      2  CD2 TYR A   1      -0.738  36.042  27.550  0.00  0.00    -0.001 A 
ATOM      3  CE2 TYR A   1      -1.970  36.470  27.060  0.00  0.00    +0.036 A 
ATOM      4  CZ  TYR A   1      -1.990  37.539  26.130  0.00  0.00    +0.134 A 
ATOM      5  CE1 TYR A   1      -0.785  38.121  25.713  0.00  0.00    +0.036 A 
ATOM      6  CD1 TYR A   1       0.431  37.695  26.242  0.00  0.00    -0.001 A 
ENDROOT
BRANCH   4   7
ATOM      7  OH  TYR A   1      -3.162  37.941  25.619  0.00  0.00    -0.506 OA
ATOM      8  HH  TYR A   1      -3.896  37.420  26.031  0.00  0.00    +0.292 HD
ENDBRANCH   4   7
BRANCH   1   9
ATOM      9  CB  TYR A   1       1.826  36.118  27.629  0.00  0.00    +0.051 C 
BRANCH   9  10
ATOM     10  CA  TYR A   1       1.869  35.310  28.914  0.00  0.00    +0.137 C 
BRANCH  10  11
ATOM     11  N   TYR A   1       1.683  36.217  30.085  0.00  0.00    -0.239 NA
ATOM     12  H   TYR A   1       1.555  37.240  29.950  0.00  0.00    +0.142 HD
ENDBRANCH  10  11
BRANCH  10  13
ATOM     13  C   TYR A   1       3.192  34.566  28.963  0.00  0.00    +0.224 C 
ATOM     14  O   TYR A   1       3.271  33.353  28.667  0.00  0.00    -0.287 OA
ENDBRANCH  10  13
ENDBRANCH   9  10
ENDBRANCH   1   9
TORSDOF 5
REMARK  Name = ../refined-set-2016/4w97/4w97_pocket.pdb
REMARK  282 active torsions:
REMARK  status: ('A' for Active; 'I' for Inactive)
REMARK    1  A    between atoms: _1  and  _3
REMARK    2  A    between atoms: _3  and  _4
REMARK    3  A    between atoms: _3  and  _6
REMARK    4  A    between atoms: _6  and  _7
REMARK    5  A    between atoms: _10  and  _12
REMARK    6  A    between atoms: _12  and  _13
REMARK    7  A    between atoms: _12  and  _15
REMARK    8  A    between atoms: _15  and  _16
REMARK    9  A    between atoms: _22  and  _24
REMARK   10  A    between atoms: _24  and  _25
REMARK   11  A    between atoms: _24  and  _27
REMARK   12  A    between atoms: _27  and  _28
REMARK   13  A    between atoms: _31  and  _33
REMARK   14  A    between atoms: _33  and  _34
REMARK   15  A    between atoms: _33  and  _36
REMARK   16  A    between atoms: _36  and  _37
REMARK   17  A    between atoms: _40  and  _42
REMARK   18  A    between atoms: _42  and  _43
REMARK   19  A    between atoms: _42  and  _45
REMARK   20  A    between atoms: _45  and  _46
REMARK   21  A    between atoms: _52  and  _54
REMARK   22  A    between atoms: _54  and  _55
REMARK   23  A    between atoms: _54  and  _57
REMARK   24  A    between atoms: _57  and  _58
REMARK   25  A    between atoms: _63  and  _64
REMARK   26  A    between atoms: _66  and  _68
REMARK   27  A    between atoms: _68  and  _69
REMARK   28  A    between atoms: _68  and  _71
REMARK   29  A    between atoms: _71  and  _72
REMARK   30  A    between atoms: _74  and  _76
REMARK   31  A    between atoms: _76  and  _77
REMARK   32  A    between atoms: _80  and  _82
REMARK   33  A    between atoms: _82  and  _83
REMARK   34  A    between atoms: _82  and  _85
REMARK   35  A    between atoms: _85  and  _86
REMARK   36  A    between atoms: _89  and  _91
REMARK   37  A    between atoms: _91  and  _92
REMARK   38  A    between atoms: _91  and  _94
REMARK   39  A    between atoms: _94  and  _95
REMARK   40  A    between atoms: _95  and  _96
REMARK   41  A    between atoms: _101  and  _103
REMARK   42  A    between atoms: _103  and  _104
REMARK   43  A    between atoms: _103  and  _106
REMARK   44  A    between atoms: _109  and  _111
REMARK   45  A    between atoms: _111  and  _112
REMARK   46  A    between atoms: _111  and  _114
REMARK   47  A    between atoms: _117  and  _119
REMARK   48  A    between atoms: _119  and  _120
REMARK   49  A    between atoms: _119  and  _122
REMARK   50  A    between atoms: _122  and  _123
REMARK   51  A    between atoms: _126  and  _128
REMARK   52  A    between atoms: _128  and  _129
REMARK   53  A    between atoms: _128  and  _131
REMARK   54  A    between atoms: _131  and  _132
REMARK   55  A    between atoms: _137  and  _138
REMARK   56  A    between atoms: _140  and  _142
REMARK   57  A    between atoms: _142  and  _143
REMARK   58  A    between atoms: _142  and  _145
REMARK   59  A    between atoms: _145  and  _146
REMARK   60  A    between atoms: _146  and  _147
REMARK   61  A    between atoms: _152  and  _154
REMARK   62  A    between atoms: _154  and  _155
REMARK   63  A    between atoms: _154  and  _157
REMARK   64  A    between atoms: _157  and  _158
REMARK   65  A    between atoms: _161  and  _163
REMARK   66  A    between atoms: _163  and  _164
REMARK   67  A    between atoms: _163  and  _166
REMARK   68  A    between atoms: _166  and  _167
REMARK   69  A    between atoms: _167  and  _168
REMARK   70  A    between atoms: _171  and  _173
REMARK   71  A    between atoms: _173  and  _174
REMARK   72  A    between atoms: _177  and  _179
REMARK   73  A    between atoms: _179  and  _180
REMARK   74  A    between atoms: _179  and  _182
REMARK   75  A    between atoms: _182  and  _183
REMARK   76  A    between atoms: _183  and  _184
REMARK   77  A    between atoms: _189  and  _191
REMARK   78  A    between atoms: _191  and  _192
REMARK   79  A    between atoms: _191  and  _194
REMARK   80  A    between atoms: _194  and  _195
REMARK   81  A    between atoms: _195  and  _196
REMARK   82  A    between atoms: _196  and  _197
REMARK   83  A    between atoms: _206  and  _208
REMARK   84  A    between atoms: _208  and  _209
REMARK   85  A    between atoms: _212  and  _214
REMARK   86  A    between atoms: _214  and  _215
REMARK   87  A    between atoms: _214  and  _217
REMARK   88  A    between atoms: _217  and  _218
REMARK   89  A    between atoms: _223  and  _224
REMARK   90  A    between atoms: _226  and  _228
REMARK   91  A    between atoms: _228  and  _229
REMARK   92  A    between atoms: _228  and  _231
REMARK   93  A    between atoms: _231  and  _232
REMARK   94  A    between atoms: _235  and  _237
REMARK   95  A    between atoms: _237  and  _238
REMARK   96  A    between atoms: _237  and  _240
REMARK   97  A    between atoms: _240  and  _241
REMARK   98  A    between atoms: _241  and  _242
REMARK   99  A    between atoms: _245  and  _247
REMARK  100  A    between atoms: _247  and  _248
REMARK  101  A    between atoms: _247  and  _250
REMARK  102  A    between atoms: _250  and  _251
REMARK  103  A    between atoms: _254  and  _256
REMARK  104  A    between atoms: _256  and  _257
REMARK  105  A    between atoms: _256  and  _259
REMARK  106  A    between atoms: _259  and  _260
REMARK  107  A    between atoms: _260  and  _261
REMARK  108  A    between atoms: _261  and  _262
REMARK  109  A    between atoms: _271  and  _273
REMARK  110  A    between atoms: _273  and  _274
REMARK  111  A    between atoms: _273  and  _276
REMARK  112  A    between atoms: _276  and  _277
REMARK  113  A    between atoms: _282  and  _284
REMARK  114  A    between atoms: _284  and  _285
REMARK  115  A    between atoms: _284  and  _287
REMARK  116  A    between atoms: _287  and  _288
REMARK  117  A    between atoms: _288  and  _289
REMARK  118  A    between atoms: _289  and  _290
REMARK  119  A    between atoms: _290  and  _291
REMARK  120  A    between atoms: _295  and  _297
REMARK  121  A    between atoms: _297  and  _298
REMARK  122  A    between atoms: _297  and  _300
REMARK  123  A    between atoms: _300  and  _301
REMARK  124  A    between atoms: _301  and  _302
REMARK  125  A    between atoms: _307  and  _309
REMARK  126  A    between atoms: _309  and  _310
REMARK  127  A    between atoms: _309  and  _312
REMARK  128  A    between atoms: _312  and  _313
REMARK  129  A    between atoms: _313  and  _314
REMARK  130  A    between atoms: _319  and  _321
REMARK  131  A    between atoms: _321  and  _322
REMARK  132  A    between atoms: _321  and  _324
REMARK  133  A    between atoms: _324  and  _325
REMARK  134  A    between atoms: _325  and  _326
REMARK  135  A    between atoms: _326  and  _327
REMARK  136  A    between atoms: _336  and  _338
REMARK  137  A    between atoms: _338  and  _339
REMARK  138  A    between atoms: _338  and  _341
REMARK  139  A    between atoms: _341  and  _342
REMARK  140  A    between atoms: _342  and  _343
REMARK  141  A    between atoms: _345  and  _347
REMARK  142  A    between atoms: _347  and  _348
REMARK  143  A    between atoms: _347  and  _350
REMARK  144  A    between atoms: _350  and  _351
REMARK  145  A    between atoms: _361  and  _363
REMARK  146  A    between atoms: _363  and  _364
REMARK  147  A    between atoms: _363  and  _366
REMARK  148  A    between atoms: _366  and  _367
REMARK  149  A    between atoms: _370  and  _372
REMARK  150  A    between atoms: _372  and  _373
REMARK  151  A    between atoms: _372  and  _375
REMARK  152  A    between atoms: _375  and  _376
REMARK  153  A    between atoms: _379  and  _381
REMARK  154  A    between atoms: _381  and  _382
REMARK  155  A    between atoms: _381  and  _384
REMARK  156  A    between atoms: _384  and  _385
REMARK  157  A    between atoms: _388  and  _390
REMARK  158  A    between atoms: _390  and  _391
REMARK  159  A    between atoms: _390  and  _393
REMARK  160  A    between atoms: _393  and  _394
REMARK  161  A    between atoms: _399  and  _400
REMARK  162  A    between atoms: _402  and  _404
REMARK  163  A    between atoms: _404  and  _405
REMARK  164  A    between atoms: _404  and  _407
REMARK  165  A    between atoms: _407  and  _408
REMARK  166  A    between atoms: _408  and  _409
REMARK  167  A    between atoms: _409  and  _410
REMARK  168  A    between atoms: _419  and  _421
REMARK  169  A    between atoms: _421  and  _422
REMARK  170  A    between atoms: _421  and  _424
REMARK  171  A    between atoms: _424  and  _425
REMARK  172  A    between atoms: _431  and  _433
REMARK  173  A    between atoms: _433  and  _434
REMARK  174  A    between atoms: _433  and  _436
REMARK  175  A    between atoms: _436  and  _437
REMARK  176  A    between atoms: _440  and  _442
REMARK  177  A    between atoms: _442  and  _443
REMARK  178  A    between atoms: _442  and  _445
REMARK  179  A    between atoms: _445  and  _446
REMARK  180  A    between atoms: _446  and  _447
REMARK  181  A    between atoms: _447  and  _448
REMARK  182  A    between atoms: _457  and  _459
REMARK  183  A    between atoms: _459  and  _460
REMARK  184  A    between atoms: _459  and  _462
REMARK  185  A    between atoms: _462  and  _463
REMARK  186  A    between atoms: _466  and  _468
REMARK  187  A    between atoms: _468  and  _469
REMARK  188  A    between atoms: _468  and  _471
REMARK  189  A    between atoms: _471  and  _472
REMARK  190  A    between atoms: _475  and  _477
REMARK  191  A    between atoms: _477  and  _478
REMARK  192  A    between atoms: _477  and  _480
REMARK  193  A    between atoms: _480  and  _481
REMARK  194  A    between atoms: _484  and  _486
REMARK  195  A    between atoms: _486  and  _487
REMARK  196  A    between atoms: _486  and  _489
REMARK  197  A    between atoms: _489  and  _490
REMARK  198  A    between atoms: _500  and  _502
REMARK  199  A    between atoms: _502  and  _503
REMARK  200  A    between atoms: _502  and  _505
REMARK  201  A    between atoms: _508  and  _510
REMARK  202  A    between atoms: _510  and  _511
REMARK  203  A    between atoms: _510  and  _513
REMARK  204  A    between atoms: _513  and  _514
REMARK  205  A    between atoms: _516  and  _518
REMARK  206  A    between atoms: _518  and  _519
REMARK  207  A    between atoms: _518  and  _521
REMARK  208  A    between atoms: _524  and  _526
REMARK  209  A    between atoms: _526  and  _527
REMARK  210  A    between atoms: _526  and  _529
REMARK  211  A    between atoms: _529  and  _530
REMARK  212  A    between atoms: _530  and  _531
REMARK  213  A    between atoms: _531  and  _532
REMARK  214  A    between atoms: _541  and  _543
REMARK  215  A    between atoms: _543  and  _544
REMARK  216  A    between atoms: _543  and  _546
REMARK  217  A    between atoms: _546  and  _547
REMARK  218  A    between atoms: _547  and  _548
REMARK  219  A    between atoms: _551  and  _553
REMARK  220  A    between atoms: _553  and  _554
REMARK  221  A    between atoms: _553  and  _556
REMARK  222  A    between atoms: _556  and  _557
REMARK  223  A    between atoms: _557  and  _558
REMARK  224  A    between atoms: _563  and  _565
REMARK  225  A    between atoms: _565  and  _566
REMARK  226  A    between atoms: _565  and  _568
REMARK  227  A    between atoms: _568  and  _569
REMARK  228  A    between atoms: _572  and  _574
REMARK  229  A    between atoms: _574  and  _575
REMARK  230  A    between atoms: _574  and  _577
REMARK  231  A    between atoms: _580  and  _582
REMARK  232  A    between atoms: _582  and  _583
REMARK  233  A    between atoms: _582  and  _585
REMARK  234  A    between atoms: _585  and  _586
REMARK  235  A    between atoms: _588  and  _590
REMARK  236  A    between atoms: _590  and  _591
REMARK  237  A    between atoms: _590  and  _593
REMARK  238  A    between atoms: _596  and  _598
REMARK  239  A    between atoms: _598  and  _599
REMARK  240  A    between atoms: _598  and  _601
REMARK  241  A    between atoms: _601  and  _602
REMARK  242  A    between atoms: _602  and  _603
REMARK  243  A    between atoms: _603  and  _604
REMARK  244  A    between atoms: _613  and  _615
REMARK  245  A    between atoms: _615  and  _616
REMARK  246  A    between atoms: _615  and  _618
REMARK  247  A    between atoms: _618  and  _619
REMARK  248  A    between atoms: _629  and  _631
REMARK  249  A    between atoms: _631  and  _632
REMARK  250  A    between atoms: _631  and  _634
REMARK  251  A    between atoms: _634  and  _635
REMARK  252  A    between atoms: _640  and  _641
REMARK  253  A    between atoms: _643  and  _645
REMARK  254  A    between atoms: _645  and  _646
REMARK  255  A    between atoms: _645  and  _648
REMARK  256  A    between atoms: _648  and  _649
REMARK  257  A    between atoms: _649  and  _650
REMARK  258  A    between atoms: _650  and  _651
REMARK  259  A    between atoms: _661  and  _662
REMARK  260  A    between atoms: _667  and  _669
REMARK  261  A    between atoms: _669  and  _670
REMARK  262  A    between atoms: _672  and  _674
REMARK  263  A    between atoms: _674  and  _675
REMARK  264  A    between atoms: _678  and  _679
REMARK  265  A    between atoms: _684  and  _686
REMARK  266  A    between atoms: _686  and  _687
REMARK  267  A    between atoms: _686  and  _689
REMARK  268  A    between atoms: _689  and  _690
REMARK  269  A    between atoms: _693  and  _695
REMARK  270  A    between atoms: _695  and  _696
REMARK  271  A    between atoms: _695  and  _698
REMARK  272  A    between atoms: _698  and  _699
REMARK  273  A    between atoms: _702  and  _704
REMARK  274  A    between atoms: _704  and  _705
REMARK  275  A    between atoms: _708  and  _710
REMARK  276  A    between atoms: _710  and  _711
REMARK  277  A    between atoms: _710  and  _713
REMARK  278  A    between atoms: _713  and  _714
REMARK  279  A    between atoms: _714  and  _715
REMARK  280  A    between atoms: _720  and  _722
REMARK  281  A    between atoms: _722  and  _723
REMARK  282  A    between atoms: _722  and  _725
REMARK                            x       y       z     vdW  Elec       q    Type
REMARK                         _______ _______ _______ _____ _____    ______ ____
ROOT
ATOM      1  CA  SER A   1      -7.860  37.515  28.636  0.00  0.00    +0.163 C 
ENDROOT
BRANCH   1   2
ATOM      2  N   SER A   1      -6.982  36.422  29.107  0.00  0.00    -0.237 NA
ATOM      3  H   SER A   1      -6.878  35.569  28.522  0.00  0.00    +0.142 HD
ENDBRANCH   1   2
BRANCH   1   4
ATOM      4  CB  SER A   1      -8.907  37.828  29.713  0.00  0.00    +0.227 C 
ATOM      5  OG  SER A   1      -9.296  38.987  29.941  0.00  0.00    -0.287 OA
ENDBRANCH   1   4
BRANCH   1   6
ATOM      6  C   SER A   1      -8.599  37.152  27.343  0.00  0.00    +0.162 C 
BRANCH   6   7
ATOM      7  O   SER A   1      -7.731  36.830  26.261  0.00  0.00    -0.380 OA
ATOM      8  H   SER A   1      -7.170  36.053  26.509  0.00  0.00    +0.211 HD
ENDBRANCH   6   7
ENDBRANCH   1   6
TORSDOF 4
REMARK  Name = ../refined-set-2016/4w97/4w97_pocket.pdb
REMARK  282 active torsions:
REMARK  status: ('A' for Active; 'I' for Inactive)
REMARK    1  A    between atoms: _1  and  _3
REMARK    2  A    between atoms: _3  and  _4
REMARK    3  A    between atoms: _3  and  _6
REMARK    4  A    between atoms: _6  and  _7
REMARK    5  A    between atoms: _10  and  _12
REMARK    6  A    between atoms: _12  and  _13
REMARK    7  A    between atoms: _12  and  _15
REMARK    8  A    between atoms: _15  and  _16
REMARK    9  A    between atoms: _22  and  _24
REMARK   10  A    between atoms: _24  and  _25
REMARK   11  A    between atoms: _24  and  _27
REMARK   12  A    between atoms: _27  and  _28
REMARK   13  A    between atoms: _31  and  _33
REMARK   14  A    between atoms: _33  and  _34
REMARK   15  A    between atoms: _33  and  _36
REMARK   16  A    between atoms: _36  and  _37
REMARK   17  A    between atoms: _40  and  _42
REMARK   18  A    between atoms: _42  and  _43
REMARK   19  A    between atoms: _42  and  _45
REMARK   20  A    between atoms: _45  and  _46
REMARK   21  A    between atoms: _52  and  _54
REMARK   22  A    between atoms: _54  and  _55
REMARK   23  A    between atoms: _54  and  _57
REMARK   24  A    between atoms: _57  and  _58
REMARK   25  A    between atoms: _63  and  _64
REMARK   26  A    between atoms: _66  and  _68
REMARK   27  A    between atoms: _68  and  _69
REMARK   28  A    between atoms: _68  and  _71
REMARK   29  A    between atoms: _71  and  _72
REMARK   30  A    between atoms: _74  and  _76
REMARK   31  A    between atoms: _76  and  _77
REMARK   32  A    between atoms: _80  and  _82
REMARK   33  A    between atoms: _82  and  _83
REMARK   34  A    between atoms: _82  and  _85
REMARK   35  A    between atoms: _85  and  _86
REMARK   36  A    between atoms: _89  and  _91
REMARK   37  A    between atoms: _91  and  _92
REMARK   38  A    between atoms: _91  and  _94
REMARK   39  A    between atoms: _94  and  _95
REMARK   40  A    between atoms: _95  and  _96
REMARK   41  A    between atoms: _101  and  _103
REMARK   42  A    between atoms: _103  and  _104
REMARK   43  A    between atoms: _103  and  _106
REMARK   44  A    between atoms: _109  and  _111
REMARK   45  A    between atoms: _111  and  _112
REMARK   46  A    between atoms: _111  and  _114
REMARK   47  A    between atoms: _117  and  _119
REMARK   48  A    between atoms: _119  and  _120
REMARK   49  A    between atoms: _119  and  _122
REMARK   50  A    between atoms: _122  and  _123
REMARK   51  A    between atoms: _126  and  _128
REMARK   52  A    between atoms: _128  and  _129
REMARK   53  A    between atoms: _128  and  _131
REMARK   54  A    between atoms: _131  and  _132
REMARK   55  A    between atoms: _137  and  _138
REMARK   56  A    between atoms: _140  and  _142
REMARK   57  A    between atoms: _142  and  _143
REMARK   58  A    between atoms: _142  and  _145
REMARK   59  A    between atoms: _145  and  _146
REMARK   60  A    between atoms: _146  and  _147
REMARK   61  A    between atoms: _152  and  _154
REMARK   62  A    between atoms: _154  and  _155
REMARK   63  A    between atoms: _154  and  _157
REMARK   64  A    between atoms: _157  and  _158
REMARK   65  A    between atoms: _161  and  _163
REMARK   66  A    between atoms: _163  and  _164
REMARK   67  A    between atoms: _163  and  _166
REMARK   68  A    between atoms: _166  and  _167
REMARK   69  A    between atoms: _167  and  _168
REMARK   70  A    between atoms: _171  and  _173
REMARK   71  A    between atoms: _173  and  _174
REMARK   72  A    between atoms: _177  and  _179
REMARK   73  A    between atoms: _179  and  _180
REMARK   74  A    between atoms: _179  and  _182
REMARK   75  A    between atoms: _182  and  _183
REMARK   76  A    between atoms: _183  and  _184
REMARK   77  A    between atoms: _189  and  _191
REMARK   78  A    between atoms: _191  and  _192
REMARK   79  A    between atoms: _191  and  _194
REMARK   80  A    between atoms: _194  and  _195
REMARK   81  A    between atoms: _195  and  _196
REMARK   82  A    between atoms: _196  and  _197
REMARK   83  A    between atoms: _206  and  _208
REMARK   84  A    between atoms: _208  and  _209
REMARK   85  A    between atoms: _212  and  _214
REMARK   86  A    between atoms: _214  and  _215
REMARK   87  A    between atoms: _214  and  _217
REMARK   88  A    between atoms: _217  and  _218
REMARK   89  A    between atoms: _223  and  _224
REMARK   90  A    between atoms: _226  and  _228
REMARK   91  A    between atoms: _228  and  _229
REMARK   92  A    between atoms: _228  and  _231
REMARK   93  A    between atoms: _231  and  _232
REMARK   94  A    between atoms: _235  and  _237
REMARK   95  A    between atoms: _237  and  _238
REMARK   96  A    between atoms: _237  and  _240
REMARK   97  A    between atoms: _240  and  _241
REMARK   98  A    between atoms: _241  and  _242
REMARK   99  A    between atoms: _245  and  _247
REMARK  100  A    between atoms: _247  and  _248
REMARK  101  A    between atoms: _247  and  _250
REMARK  102  A    between atoms: _250  and  _251
REMARK  103  A    between atoms: _254  and  _256
REMARK  104  A    between atoms: _256  and  _257
REMARK  105  A    between atoms: _256  and  _259
REMARK  106  A    between atoms: _259  and  _260
REMARK  107  A    between atoms: _260  and  _261
REMARK  108  A    between atoms: _261  and  _262
REMARK  109  A    between atoms: _271  and  _273
REMARK  110  A    between atoms: _273  and  _274
REMARK  111  A    between atoms: _273  and  _276
REMARK  112  A    between atoms: _276  and  _277
REMARK  113  A    between atoms: _282  and  _284
REMARK  114  A    between atoms: _284  and  _285
REMARK  115  A    between atoms: _284  and  _287
REMARK  116  A    between atoms: _287  and  _288
REMARK  117  A    between atoms: _288  and  _289
REMARK  118  A    between atoms: _289  and  _290
REMARK  119  A    between atoms: _290  and  _291
REMARK  120  A    between atoms: _295  and  _297
REMARK  121  A    between atoms: _297  and  _298
REMARK  122  A    between atoms: _297  and  _300
REMARK  123  A    between atoms: _300  and  _301
REMARK  124  A    between atoms: _301  and  _302
REMARK  125  A    between atoms: _307  and  _309
REMARK  126  A    between atoms: _309  and  _310
REMARK  127  A    between atoms: _309  and  _312
REMARK  128  A    between atoms: _312  and  _313
REMARK  129  A    between atoms: _313  and  _314
REMARK  130  A    between atoms: _319  and  _321
REMARK  131  A    between atoms: _321  and  _322
REMARK  132  A    between atoms: _321  and  _324
REMARK  133  A    between atoms: _324  and  _325
REMARK  134  A    between atoms: _325  and  _326
REMARK  135  A    between atoms: _326  and  _327
REMARK  136  A    between atoms: _336  and  _338
REMARK  137  A    between atoms: _338  and  _339
REMARK  138  A    between atoms: _338  and  _341
REMARK  139  A    between atoms: _341  and  _342
REMARK  140  A    between atoms: _342  and  _343
REMARK  141  A    between atoms: _345  and  _347
REMARK  142  A    between atoms: _347  and  _348
REMARK  143  A    between atoms: _347  and  _350
REMARK  144  A    between atoms: _350  and  _351
REMARK  145  A    between atoms: _361  and  _363
REMARK  146  A    between atoms: _363  and  _364
REMARK  147  A    between atoms: _363  and  _366
REMARK  148  A    between atoms: _366  and  _367
REMARK  149  A    between atoms: _370  and  _372
REMARK  150  A    between atoms: _372  and  _373
REMARK  151  A    between atoms: _372  and  _375
REMARK  152  A    between atoms: _375  and  _376
REMARK  153  A    between atoms: _379  and  _381
REMARK  154  A    between atoms: _381  and  _382
REMARK  155  A    between atoms: _381  and  _384
REMARK  156  A    between atoms: _384  and  _385
REMARK  157  A    between atoms: _388  and  _390
REMARK  158  A    between atoms: _390  and  _391
REMARK  159  A    between atoms: _390  and  _393
REMARK  160  A    between atoms: _393  and  _394
REMARK  161  A    between atoms: _399  and  _400
REMARK  162  A    between atoms: _402  and  _404
REMARK  163  A    between atoms: _404  and  _405
REMARK  164  A    between atoms: _404  and  _407
REMARK  165  A    between atoms: _407  and  _408
REMARK  166  A    between atoms: _408  and  _409
REMARK  167  A    between atoms: _409  and  _410
REMARK  168  A    between atoms: _419  and  _421
REMARK  169  A    between atoms: _421  and  _422
REMARK  170  A    between atoms: _421  and  _424
REMARK  171  A    between atoms: _424  and  _425
REMARK  172  A    between atoms: _431  and  _433
REMARK  173  A    between atoms: _433  and  _434
REMARK  174  A    between atoms: _433  and  _436
REMARK  175  A    between atoms: _436  and  _437
REMARK  176  A    between atoms: _440  and  _442
REMARK  177  A    between atoms: _442  and  _443
REMARK  178  A    between atoms: _442  and  _445
REMARK  179  A    between atoms: _445  and  _446
REMARK  180  A    between atoms: _446  and  _447
REMARK  181  A    between atoms: _447  and  _448
REMARK  182  A    between atoms: _457  and  _459
REMARK  183  A    between atoms: _459  and  _460
REMARK  184  A    between atoms: _459  and  _462
REMARK  185  A    between atoms: _462  and  _463
REMARK  186  A    between atoms: _466  and  _468
REMARK  187  A    between atoms: _468  and  _469
REMARK  188  A    between atoms: _468  and  _471
REMARK  189  A    between atoms: _471  and  _472
REMARK  190  A    between atoms: _475  and  _477
REMARK  191  A    between atoms: _477  and  _478
REMARK  192  A    between atoms: _477  and  _480
REMARK  193  A    between atoms: _480  and  _481
REMARK  194  A    between atoms: _484  and  _486
REMARK  195  A    between atoms: _486  and  _487
REMARK  196  A    between atoms: _486  and  _489
REMARK  197  A    between atoms: _489  and  _490
REMARK  198  A    between atoms: _500  and  _502
REMARK  199  A    between atoms: _502  and  _503
REMARK  200  A    between atoms: _502  and  _505
REMARK  201  A    between atoms: _508  and  _510
REMARK  202  A    between atoms: _510  and  _511
REMARK  203  A    between atoms: _510  and  _513
REMARK  204  A    between atoms: _513  and  _514
REMARK  205  A    between atoms: _516  and  _518
REMARK  206  A    between atoms: _518  and  _519
REMARK  207  A    between atoms: _518  and  _521
REMARK  208  A    between atoms: _524  and  _526
REMARK  209  A    between atoms: _526  and  _527
REMARK  210  A    between atoms: _526  and  _529
REMARK  211  A    between atoms: _529  and  _530
REMARK  212  A    between atoms: _530  and  _531
REMARK  213  A    between atoms: _531  and  _532
REMARK  214  A    between atoms: _541  and  _543
REMARK  215  A    between atoms: _543  and  _544
REMARK  216  A    between atoms: _543  and  _546
REMARK  217  A    between atoms: _546  and  _547
REMARK  218  A    between atoms: _547  and  _548
REMARK  219  A    between atoms: _551  and  _553
REMARK  220  A    between atoms: _553  and  _554
REMARK  221  A    between atoms: _553  and  _556
REMARK  222  A    between atoms: _556  and  _557
REMARK  223  A    between atoms: _557  and  _558
REMARK  224  A    between atoms: _563  and  _565
REMARK  225  A    between atoms: _565  and  _566
REMARK  226  A    between atoms: _565  and  _568
REMARK  227  A    between atoms: _568  and  _569
REMARK  228  A    between atoms: _572  and  _574
REMARK  229  A    between atoms: _574  and  _575
REMARK  230  A    between atoms: _574  and  _577
REMARK  231  A    between atoms: _580  and  _582
REMARK  232  A    between atoms: _582  and  _583
REMARK  233  A    between atoms: _582  and  _585
REMARK  234  A    between atoms: _585  and  _586
REMARK  235  A    between atoms: _588  and  _590
REMARK  236  A    between atoms: _590  and  _591
REMARK  237  A    between atoms: _590  and  _593
REMARK  238  A    between atoms: _596  and  _598
REMARK  239  A    between atoms: _598  and  _599
REMARK  240  A    between atoms: _598  and  _601
REMARK  241  A    between atoms: _601  and  _602
REMARK  242  A    between atoms: _602  and  _603
REMARK  243  A    between atoms: _603  and  _604
REMARK  244  A    between atoms: _613  and  _615
REMARK  245  A    between atoms: _615  and  _616
REMARK  246  A    between atoms: _615  and  _618
REMARK  247  A    between atoms: _618  and  _619
REMARK  248  A    between atoms: _629  and  _631
REMARK  249  A    between atoms: _631  and  _632
REMARK  250  A    between atoms: _631  and  _634
REMARK  251  A    between atoms: _634  and  _635
REMARK  252  A    between atoms: _640  and  _641
REMARK  253  A    between atoms: _643  and  _645
REMARK  254  A    between atoms: _645  and  _646
REMARK  255  A    between atoms: _645  and  _648
REMARK  256  A    between atoms: _648  and  _649
REMARK  257  A    between atoms: _649  and  _650
REMARK  258  A    between atoms: _650  and  _651
REMARK  259  A    between atoms: _661  and  _662
REMARK  260  A    between atoms: _667  and  _669
REMARK  261  A    between atoms: _669  and  _670
REMARK  262  A    between atoms: _672  and  _674
REMARK  263  A    between atoms: _674  and  _675
REMARK  264  A    between atoms: _678  and  _679
REMARK  265  A    between atoms: _684  and  _686
REMARK  266  A    between atoms: _686  and  _687
REMARK  267  A    between atoms: _686  and  _689
REMARK  268  A    between atoms: _689  and  _690
REMARK  269  A    between atoms: _693  and  _695
REMARK  270  A    between atoms: _695  and  _696
REMARK  271  A    between atoms: _695  and  _698
REMARK  272  A    between atoms: _698  and  _699
REMARK  273  A    between atoms: _702  and  _704
REMARK  274  A    between atoms: _704  and  _705
REMARK  275  A    between atoms: _708  and  _710
REMARK  276  A    between atoms: _710  and  _711
REMARK  277  A    between atoms: _710  and  _713
REMARK  278  A    between atoms: _713  and  _714
REMARK  279  A    between atoms: _714  and  _715
REMARK  280  A    between atoms: _720  and  _722
REMARK  281  A    between atoms: _722  and  _723
REMARK  282  A    between atoms: _722  and  _725
REMARK                            x       y       z     vdW  Elec       q    Type
REMARK                         _______ _______ _______ _____ _____    ______ ____
ROOT
ATOM      1  C   ALA A   1      -8.719  41.642  32.519  0.00  0.00    +0.238 C 
ATOM      2  O   ALA A   1      -8.803  42.688  33.129  0.00  0.00    -0.274 OA
ATOM      3  N   ILE A   2      -9.784  41.029  32.011  0.00  0.00    -0.298 N 
ATOM      4  H   ILE A   2      -9.682  40.111  31.532  0.00  0.00    +0.150 HD
ENDROOT
BRANCH   1   5
ATOM      5  CA  ALA A   1      -7.378  40.947  32.384  0.00  0.00    +0.145 C 
ATOM      6  CB  ALA A   1      -6.833  41.124  30.992  0.00  0.00    +0.028 C 
BRANCH   5   7
ATOM      7  N   ALA A   1      -7.533  39.510  32.710  0.00  0.00    -0.238 NA
ATOM      8  H   ALA A   1      -7.348  38.799  31.974  0.00  0.00    +0.142 HD
ENDBRANCH   5   7
ENDBRANCH   1   5
BRANCH   3   9
ATOM      9  CA  ILE A   2     -11.106  41.659  32.132  0.00  0.00    +0.137 C 
BRANCH   9  10
ATOM     10  C   ILE A   2     -11.602  41.781  33.542  0.00  0.00    +0.227 C 
ATOM     11  O   ILE A   2     -12.222  42.771  33.939  0.00  0.00    -0.286 OA
ENDBRANCH   9  10
BRANCH   9  12
ATOM     12  CB  ILE A   2     -12.133  40.841  31.268  0.00  0.00    +0.026 C 
ATOM     13  CG2 ILE A   2     -13.575  41.265  31.569  0.00  0.00    +0.002 C 
BRANCH  12  14
ATOM     14  CG1 ILE A   2     -11.755  41.081  29.815  0.00  0.00    +0.002 C 
ATOM     15  CD1 ILE A   2     -12.497  40.151  28.793  0.00  0.00    +0.000 C 
ENDBRANCH  12  14
ENDBRANCH   9  12
ENDBRANCH   3   9
TORSDOF 6
REMARK  Name = ../refined-set-2016/4w97/4w97_pocket.pdb
REMARK  282 active torsions:
REMARK  status: ('A' for Active; 'I' for Inactive)
REMARK    1  A    between atoms: _1  and  _3
REMARK    2  A    between atoms: _3  and  _4
REMARK    3  A    between atoms: _3  and  _6
REMARK    4  A    between atoms: _6  and  _7
REMARK    5  A    between atoms: _10  and  _12
REMARK    6  A    between atoms: _12  and  _13
REMARK    7  A    between atoms: _12  and  _15
REMARK    8  A    between atoms: _15  and  _16
REMARK    9  A    between atoms: _22  and  _24
REMARK   10  A    between atoms: _24  and  _25
REMARK   11  A    between atoms: _24  and  _27
REMARK   12  A    between atoms: _27  and  _28
REMARK   13  A    between atoms: _31  and  _33
REMARK   14  A    between atoms: _33  and  _34
REMARK   15  A    between atoms: _33  and  _36
REMARK   16  A    between atoms: _36  and  _37
REMARK   17  A    between atoms: _40  and  _42
REMARK   18  A    between atoms: _42  and  _43
REMARK   19  A    between atoms: _42  and  _45
REMARK   20  A    between atoms: _45  and  _46
REMARK   21  A    between atoms: _52  and  _54
REMARK   22  A    between atoms: _54  and  _55
REMARK   23  A    between atoms: _54  and  _57
REMARK   24  A    between atoms: _57  and  _58
REMARK   25  A    between atoms: _63  and  _64
REMARK   26  A    between atoms: _66  and  _68
REMARK   27  A    between atoms: _68  and  _69
REMARK   28  A    between atoms: _68  and  _71
REMARK   29  A    between atoms: _71  and  _72
REMARK   30  A    between atoms: _74  and  _76
REMARK   31  A    between atoms: _76  and  _77
REMARK   32  A    between atoms: _80  and  _82
REMARK   33  A    between atoms: _82  and  _83
REMARK   34  A    between atoms: _82  and  _85
REMARK   35  A    between atoms: _85  and  _86
REMARK   36  A    between atoms: _89  and  _91
REMARK   37  A    between atoms: _91  and  _92
REMARK   38  A    between atoms: _91  and  _94
REMARK   39  A    between atoms: _94  and  _95
REMARK   40  A    between atoms: _95  and  _96
REMARK   41  A    between atoms: _101  and  _103
REMARK   42  A    between atoms: _103  and  _104
REMARK   43  A    between atoms: _103  and  _106
REMARK   44  A    between atoms: _109  and  _111
REMARK   45  A    between atoms: _111  and  _112
REMARK   46  A    between atoms: _111  and  _114
REMARK   47  A    between atoms: _117  and  _119
REMARK   48  A    between atoms: _119  and  _120
REMARK   49  A    between atoms: _119  and  _122
REMARK   50  A    between atoms: _122  and  _123
REMARK   51  A    between atoms: _126  and  _128
REMARK   52  A    between atoms: _128  and  _129
REMARK   53  A    between atoms: _128  and  _131
REMARK   54  A    between atoms: _131  and  _132
REMARK   55  A    between atoms: _137  and  _138
REMARK   56  A    between atoms: _140  and  _142
REMARK   57  A    between atoms: _142  and  _143
REMARK   58  A    between atoms: _142  and  _145
REMARK   59  A    between atoms: _145  and  _146
REMARK   60  A    between atoms: _146  and  _147
REMARK   61  A    between atoms: _152  and  _154
REMARK   62  A    between atoms: _154  and  _155
REMARK   63  A    between atoms: _154  and  _157
REMARK   64  A    between atoms: _157  and  _158
REMARK   65  A    between atoms: _161  and  _163
REMARK   66  A    between atoms: _163  and  _164
REMARK   67  A    between atoms: _163  and  _166
REMARK   68  A    between atoms: _166  and  _167
REMARK   69  A    between atoms: _167  and  _168
REMARK   70  A    between atoms: _171  and  _173
REMARK   71  A    between atoms: _173  and  _174
REMARK   72  A    between atoms: _177  and  _179
REMARK   73  A    between atoms: _179  and  _180
REMARK   74  A    between atoms: _179  and  _182
REMARK   75  A    between atoms: _182  and  _183
REMARK   76  A    between atoms: _183  and  _184
REMARK   77  A    between atoms: _189  and  _191
REMARK   78  A    between atoms: _191  and  _192
REMARK   79  A    between atoms: _191  and  _194
REMARK   80  A    between atoms: _194  and  _195
REMARK   81  A    between atoms: _195  and  _196
REMARK   82  A    between atoms: _196  and  _197
REMARK   83  A    between atoms: _206  and  _208
REMARK   84  A    between atoms: _208  and  _209
REMARK   85  A    between atoms: _212  and  _214
REMARK   86  A    between atoms: _214  and  _215
REMARK   87  A    between atoms: _214  and  _217
REMARK   88  A    between atoms: _217  and  _218
REMARK   89  A    between atoms: _223  and  _224
REMARK   90  A    between atoms: _226  and  _228
REMARK   91  A    between atoms: _228  and  _229
REMARK   92  A    between atoms: _228  and  _231
REMARK   93  A    between atoms: _231  and  _232
REMARK   94  A    between atoms: _235  and  _237
REMARK   95  A    between atoms: _237  and  _238
REMARK   96  A    between atoms: _237  and  _240
REMARK   97  A    between atoms: _240  and  _241
REMARK   98  A    between atoms: _241  and  _242
REMARK   99  A    between atoms: _245  and  _247
REMARK  100  A    between atoms: _247  and  _248
REMARK  101  A    between atoms: _247  and  _250
REMARK  102  A    between atoms: _250  and  _251
REMARK  103  A    between atoms: _254  and  _256
REMARK  104  A    between atoms: _256  and  _257
REMARK  105  A    between atoms: _256  and  _259
REMARK  106  A    between atoms: _259  and  _260
REMARK  107  A    between atoms: _260  and  _261
REMARK  108  A    between atoms: _261  and  _262
REMARK  109  A    between atoms: _271  and  _273
REMARK  110  A    between atoms: _273  and  _274
REMARK  111  A    between atoms: _273  and  _276
REMARK  112  A    between atoms: _276  and  _277
REMARK  113  A    between atoms: _282  and  _284
REMARK  114  A    between atoms: _284  and  _285
REMARK  115  A    between atoms: _284  and  _287
REMARK  116  A    between atoms: _287  and  _288
REMARK  117  A    between atoms: _288  and  _289
REMARK  118  A    between atoms: _289  and  _290
REMARK  119  A    between atoms: _290  and  _291
REMARK  120  A    between atoms: _295  and  _297
REMARK  121  A    between atoms: _297  and  _298
REMARK  122  A    between atoms: _297  and  _300
REMARK  123  A    between atoms: _300  and  _301
REMARK  124  A    between atoms: _301  and  _302
REMARK  125  A    between atoms: _307  and  _309
REMARK  126  A    between atoms: _309  and  _310
REMARK  127  A    between atoms: _309  and  _312
REMARK  128  A    between atoms: _312  and  _313
REMARK  129  A    between atoms: _313  and  _314
REMARK  130  A    between atoms: _319  and  _321
REMARK  131  A    between atoms: _321  and  _322
REMARK  132  A    between atoms: _321  and  _324
REMARK  133  A    between atoms: _324  and  _325
REMARK  134  A    between atoms: _325  and  _326
REMARK  135  A    between atoms: _326  and  _327
REMARK  136  A    between atoms: _336  and  _338
REMARK  137  A    between atoms: _338  and  _339
REMARK  138  A    between atoms: _338  and  _341
REMARK  139  A    between atoms: _341  and  _342
REMARK  140  A    between atoms: _342  and  _343
REMARK  141  A    between atoms: _345  and  _347
REMARK  142  A    between atoms: _347  and  _348
REMARK  143  A    between atoms: _347  and  _350
REMARK  144  A    between atoms: _350  and  _351
REMARK  145  A    between atoms: _361  and  _363
REMARK  146  A    between atoms: _363  and  _364
REMARK  147  A    between atoms: _363  and  _366
REMARK  148  A    between atoms: _366  and  _367
REMARK  149  A    between atoms: _370  and  _372
REMARK  150  A    between atoms: _372  and  _373
REMARK  151  A    between atoms: _372  and  _375
REMARK  152  A    between atoms: _375  and  _376
REMARK  153  A    between atoms: _379  and  _381
REMARK  154  A    between atoms: _381  and  _382
REMARK  155  A    between atoms: _381  and  _384
REMARK  156  A    between atoms: _384  and  _385
REMARK  157  A    between atoms: _388  and  _390
REMARK  158  A    between atoms: _390  and  _391
REMARK  159  A    between atoms: _390  and  _393
REMARK  160  A    between atoms: _393  and  _394
REMARK  161  A    between atoms: _399  and  _400
REMARK  162  A    between atoms: _402  and  _404
REMARK  163  A    between atoms: _404  and  _405
REMARK  164  A    between atoms: _404  and  _407
REMARK  165  A    between atoms: _407  and  _408
REMARK  166  A    between atoms: _408  and  _409
REMARK  167  A    between atoms: _409  and  _410
REMARK  168  A    between atoms: _419  and  _421
REMARK  169  A    between atoms: _421  and  _422
REMARK  170  A    between atoms: _421  and  _424
REMARK  171  A    between atoms: _424  and  _425
REMARK  172  A    between atoms: _431  and  _433
REMARK  173  A    between atoms: _433  and  _434
REMARK  174  A    between atoms: _433  and  _436
REMARK  175  A    between atoms: _436  and  _437
REMARK  176  A    between atoms: _440  and  _442
REMARK  177  A    between atoms: _442  and  _443
REMARK  178  A    between atoms: _442  and  _445
REMARK  179  A    between atoms: _445  and  _446
REMARK  180  A    between atoms: _446  and  _447
REMARK  181  A    between atoms: _447  and  _448
REMARK  182  A    between atoms: _457  and  _459
REMARK  183  A    between atoms: _459  and  _460
REMARK  184  A    between atoms: _459  and  _462
REMARK  185  A    between atoms: _462  and  _463
REMARK  186  A    between atoms: _466  and  _468
REMARK  187  A    between atoms: _468  and  _469
REMARK  188  A    between atoms: _468  and  _471
REMARK  189  A    between atoms: _471  and  _472
REMARK  190  A    between atoms: _475  and  _477
REMARK  191  A    between atoms: _477  and  _478
REMARK  192  A    between atoms: _477  and  _480
REMARK  193  A    between atoms: _480  and  _481
REMARK  194  A    between atoms: _484  and  _486
REMARK  195  A    between atoms: _486  and  _487
REMARK  196  A    between atoms: _486  and  _489
REMARK  197  A    between atoms: _489  and  _490
REMARK  198  A    between atoms: _500  and  _502
REMARK  199  A    between atoms: _502  and  _503
REMARK  200  A    between atoms: _502  and  _505
REMARK  201  A    between atoms: _508  and  _510
REMARK  202  A    between atoms: _510  and  _511
REMARK  203  A    between atoms: _510  and  _513
REMARK  204  A    between atoms: _513  and  _514
REMARK  205  A    between atoms: _516  and  _518
REMARK  206  A    between atoms: _518  and  _519
REMARK  207  A    between atoms: _518  and  _521
REMARK  208  A    between atoms: _524  and  _526
REMARK  209  A    between atoms: _526  and  _527
REMARK  210  A    between atoms: _526  and  _529
REMARK  211  A    between atoms: _529  and  _530
REMARK  212  A    between atoms: _530  and  _531
REMARK  213  A    between atoms: _531  and  _532
REMARK  214  A    between atoms: _541  and  _543
REMARK  215  A    between atoms: _543  and  _544
REMARK  216  A    between atoms: _543  and  _546
REMARK  217  A    between atoms: _546  and  _547
REMARK  218  A    between atoms: _547  and  _548
REMARK  219  A    between atoms: _551  and  _553
REMARK  220  A    between atoms: _553  and  _554
REMARK  221  A    between atoms: _553  and  _556
REMARK  222  A    between atoms: _556  and  _557
REMARK  223  A    between atoms: _557  and  _558
REMARK  224  A    between atoms: _563  and  _565
REMARK  225  A    between atoms: _565  and  _566
REMARK  226  A    between atoms: _565  and  _568
REMARK  227  A    between atoms: _568  and  _569
REMARK  228  A    between atoms: _572  and  _574
REMARK  229  A    between atoms: _574  and  _575
REMARK  230  A    between atoms: _574  and  _577
REMARK  231  A    between atoms: _580  and  _582
REMARK  232  A    between atoms: _582  and  _583
REMARK  233  A    between atoms: _582  and  _585
REMARK  234  A    between atoms: _585  and  _586
REMARK  235  A    between atoms: _588  and  _590
REMARK  236  A    between atoms: _590  and  _591
REMARK  237  A    between atoms: _590  and  _593
REMARK  238  A    between atoms: _596  and  _598
REMARK  239  A    between atoms: _598  and  _599
REMARK  240  A    between atoms: _598  and  _601
REMARK  241  A    between atoms: _601  and  _602
REMARK  242  A    between atoms: _602  and  _603
REMARK  243  A    between atoms: _603  and  _604
REMARK  244  A    between atoms: _613  and  _615
REMARK  245  A    between atoms: _615  and  _616
REMARK  246  A    between atoms: _615  and  _618
REMARK  247  A    between atoms: _618  and  _619
REMARK  248  A    between atoms: _629  and  _631
REMARK  249  A    between atoms: _631  and  _632
REMARK  250  A    between atoms: _631  and  _634
REMARK  251  A    between atoms: _634  and  _635
REMARK  252  A    between atoms: _640  and  _641
REMARK  253  A    between atoms: _643  and  _645
REMARK  254  A    between atoms: _645  and  _646
REMARK  255  A    between atoms: _645  and  _648
REMARK  256  A    between atoms: _648  and  _649
REMARK  257  A    between atoms: _649  and  _650
REMARK  258  A    between atoms: _650  and  _651
REMARK  259  A    between atoms: _661  and  _662
REMARK  260  A    between atoms: _667  and  _669
REMARK  261  A    between atoms: _669  and  _670
REMARK  262  A    between atoms: _672  and  _674
REMARK  263  A    between atoms: _674  and  _675
REMARK  264  A    between atoms: _678  and  _679
REMARK  265  A    between atoms: _684  and  _686
REMARK  266  A    between atoms: _686  and  _687
REMARK  267  A    between atoms: _686  and  _689
REMARK  268  A    between atoms: _689  and  _690
REMARK  269  A    between atoms: _693  and  _695
REMARK  270  A    between atoms: _695  and  _696
REMARK  271  A    between atoms: _695  and  _698
REMARK  272  A    between atoms: _698  and  _699
REMARK  273  A    between atoms: _702  and  _704
REMARK  274  A    between atoms: _704  and  _705
REMARK  275  A    between atoms: _708  and  _710
REMARK  276  A    between atoms: _710  and  _711
REMARK  277  A    between atoms: _710  and  _713
REMARK  278  A    between atoms: _713  and  _714
REMARK  279  A    between atoms: _714  and  _715
REMARK  280  A    between atoms: _720  and  _722
REMARK  281  A    between atoms: _722  and  _723
REMARK  282  A    between atoms: _722  and  _725
REMARK                            x       y       z     vdW  Elec       q    Type
REMARK                         _______ _______ _______ _____ _____    ______ ____
ROOT
ATOM      1  CA  GLN A   6      -9.965  48.578  22.819  0.00  0.00    +0.149 C 
ENDROOT
BRANCH   1   2
ATOM      2  C   GLN A   6     -10.608  49.811  22.211  0.00  0.00    +0.241 C 
ATOM      3  N   ASP A   7     -10.780  50.857  23.004  0.00  0.00    -0.297 N 
ATOM      4  H   ASP A   7     -10.488  50.811  24.001  0.00  0.00    +0.150 HD
ATOM      5  O   GLN A   6     -10.898  49.847  21.021  0.00  0.00    -0.273 OA
BRANCH   3   6
ATOM      6  CA  ASP A   7     -11.382  52.075  22.470  0.00  0.00    +0.160 C 
BRANCH   6   7
ATOM      7  C   ASP A   7     -10.347  52.990  21.787  0.00  0.00    +0.241 C 
ATOM      8  N   GLU A   8      -9.070  52.932  22.227  0.00  0.00    -0.297 N 
ATOM      9  H   GLU A   8      -8.770  52.158  22.853  0.00  0.00    +0.150 HD
ATOM     10  O   ASP A   7     -10.748  53.723  20.874  0.00  0.00    -0.273 OA
BRANCH   8  11
ATOM     11  CA  GLU A   8      -8.106  53.965  21.819  0.00  0.00    +0.149 C 
BRANCH  11  12
ATOM     12  C   GLU A   8      -6.813  53.488  21.211  0.00  0.00    +0.241 C 
ATOM     13  N   ALA A   9      -6.445  52.220  21.397  0.00  0.00    -0.297 N 
ATOM     14  H   ALA A   9      -7.106  51.511  21.775  0.00  0.00    +0.150 HD
ATOM     15  O   GLU A   8      -6.132  54.255  20.516  0.00  0.00    -0.273 OA
BRANCH  13  16
ATOM     16  CA  ALA A   9      -5.046  51.866  21.039  0.00  0.00    +0.149 C 
ATOM     17  CB  ALA A   9      -4.728  50.478  21.570  0.00  0.00    +0.031 C 
BRANCH  16  18
ATOM     18  C   ALA A   9      -4.794  51.918  19.532  0.00  0.00    +0.241 C 
ATOM     19  O   ALA A   9      -3.719  52.349  19.109  0.00  0.00    -0.273 OA
ATOM     20  N   GLN A  10      -5.757  51.487  18.714  0.00  0.00    -0.297 N 
ATOM     21  H   GLN A  10      -6.647  51.115  19.102  0.00  0.00    +0.150 HD
BRANCH  20  22
ATOM     22  CA  GLN A  10      -5.551  51.542  17.272  0.00  0.00    +0.149 C 
BRANCH  22  23
ATOM     23  C   GLN A  10      -5.332  52.975  16.772  0.00  0.00    +0.241 C 
ATOM     24  N   ARG A  11      -6.137  53.904  17.266  0.00  0.00    -0.298 N 
ATOM     25  H   ARG A  11      -6.928  53.614  17.875  0.00  0.00    +0.150 HD
ATOM     26  O   GLN A  10      -4.447  53.254  15.949  0.00  0.00    -0.273 OA
BRANCH  24  27
ATOM     27  CA  ARG A  11      -5.944  55.347  16.976  0.00  0.00    +0.137 C 
BRANCH  27  28
ATOM     28  C   ARG A  11      -4.573  55.864  17.478  0.00  0.00    +0.227 C 
ATOM     29  O   ARG A  11      -3.832  56.548  16.748  0.00  0.00    -0.286 OA
ENDBRANCH  27  28
BRANCH  27  30
ATOM     30  CB  ARG A  11      -7.076  56.165  17.604  0.00  0.00    +0.031 C 
BRANCH  30  31
ATOM     31  CG  ARG A  11      -6.956  57.652  17.280  0.00  0.00    +0.045 C 
BRANCH  31  32
ATOM     32  CD  ARG A  11      -8.090  58.467  17.920  0.00  0.00    +0.174 C 
BRANCH  32  33
ATOM     33  NE  ARG A  11      -8.116  58.408  19.386  0.00  0.00    -0.265 N 
ATOM     34  CZ  ARG A  11      -7.369  59.146  20.204  0.00  0.00    +0.342 C 
ATOM     35  NH2 ARG A  11      -7.476  58.985  21.513  0.00  0.00    -0.292 N 
ATOM     36 HH21 ARG A  11      -6.895  59.559  22.157  0.00  0.00    +0.255 HD
ATOM     37 HH22 ARG A  11      -8.141  58.285  21.898  0.00  0.00    +0.255 HD
ATOM     38  NH1 ARG A  11      -6.501  60.041  19.721  0.00  0.00    -0.292 N 
ATOM     39 HH11 ARG A  11      -5.924  60.610  20.373  0.00  0.00    +0.255 HD
ATOM     40 HH12 ARG A  11      -6.403  60.168  18.693  0.00  0.00    +0.255 HD
ATOM     41  HE  ARG A  11      -8.774  57.732  19.823  0.00  0.00    +0.259 HD
ENDBRANCH  32  33
ENDBRANCH  31  32
ENDBRANCH  30  31
ENDBRANCH  27  30
ENDBRANCH  24  27
ENDBRANCH  22  23
BRANCH  22  42
ATOM     42  CB  GLN A  10      -6.753  50.920  16.558  0.00  0.00    +0.039 C 
BRANCH  42  43
ATOM     43  CG  GLN A  10      -6.657  50.928  15.077  0.00  0.00    +0.087 C 
BRANCH  43  44
ATOM     44  CD  GLN A  10      -7.540  49.842  14.496  0.00  0.00    +0.219 C 
ATOM     45  OE1 GLN A  10      -8.746  49.835  14.733  0.00  0.00    -0.275 OA
ATOM     46  NE2 GLN A  10      -6.936  48.888  13.778  0.00  0.00    -0.329 N 
ATOM     47 HE21 GLN A  10      -5.912  48.938  13.604  0.00  0.00    +0.145 HD
ATOM     48 HE22 GLN A  10      -7.491  48.097  13.394  0.00  0.00    +0.145 HD
ENDBRANCH  43  44
ENDBRANCH  42  43
ENDBRANCH  22  42
ENDBRANCH  20  22
ENDBRANCH  16  18
ENDBRANCH  13  16
ENDBRANCH  11  12
BRANCH  11  49
ATOM     49  CB  GLU A   8      -7.742  54.882  23.000  0.00  0.00    +0.041 C 
BRANCH  49  50
ATOM     50  CG  GLU A   8      -8.903  55.321  23.903  0.00  0.00    +0.116 C 
BRANCH  50  51
ATOM     51  CD  GLU A   8      -9.862  56.313  23.262  0.00  0.00    +0.365 C 
ATOM     52  OE2 GLU A   8     -10.989  56.489  23.809  0.00  0.00    -0.246 OA
ATOM     53  OE1 GLU A   8      -9.491  56.897  22.234  0.00  0.00    -0.246 OA
ENDBRANCH  50  51
ENDBRANCH  49  50
ENDBRANCH  11  49
ENDBRANCH   8  11
ENDBRANCH   6   7
BRANCH   6  54
ATOM     54  CB  ASP A   7     -12.041  52.891  23.575  0.00  0.00    +0.143 C 
BRANCH  54  55
ATOM     55  CG  ASP A   7     -13.344  52.303  24.046  0.00  0.00    +0.367 C 
ATOM     56  OD2 ASP A   7     -13.830  52.739  25.120  0.00  0.00    -0.246 OA
ATOM     57  OD1 ASP A   7     -13.850  51.443  23.354  0.00  0.00    -0.246 OA
ENDBRANCH  54  55
ENDBRANCH   6  54
ENDBRANCH   3   6
ENDBRANCH   1   2
BRANCH   1  59
ATOM     58  C   TYR A   5      -7.974  49.508  23.730  0.00  0.00    +0.241 C 
ATOM     59  N   GLN A   6      -9.118  48.848  23.942  0.00  0.00    -0.297 N 
ATOM     60  H   GLN A   6      -9.386  48.539  24.898  0.00  0.00    +0.150 HD
ATOM     61  O   TYR A   5      -7.686  49.883  22.606  0.00  0.00    -0.273 OA
BRANCH  58  62
ATOM     62  CA  TYR A   5      -7.031  49.653  24.921  0.00  0.00    +0.153 C 
BRANCH  62  64
ATOM     63  C   ILE A   4      -8.396  51.419  25.871  0.00  0.00    +0.241 C 
ATOM     64  N   TYR A   5      -7.745  50.270  26.045  0.00  0.00    -0.297 N 
ATOM     65  H   TYR A   5      -7.743  49.810  26.978  0.00  0.00    +0.150 HD
ATOM     66  O   ILE A   4      -8.360  52.023  24.796  0.00  0.00    -0.273 OA
BRANCH  63  67
ATOM     67  CA  ILE A   4      -9.206  51.953  27.060  0.00  0.00    +0.149 C 
BRANCH  67  69
ATOM     68  C   VAL A   3     -10.877  50.188  26.964  0.00  0.00    +0.241 C 
ATOM     69  N   ILE A   4      -9.953  50.805  27.677  0.00  0.00    -0.297 N 
ATOM     70  H   ILE A   4      -9.746  50.501  28.650  0.00  0.00    +0.150 HD
ATOM     71  O   VAL A   3     -11.108  50.408  25.759  0.00  0.00    -0.273 OA
BRANCH  68  72
ATOM     72  CA  VAL A   3     -11.629  49.041  27.671  0.00  0.00    +0.149 C 
BRANCH  72  74
ATOM     73  C   VAL A   2      -9.768  47.508  27.778  0.00  0.00    +0.241 C 
ATOM     74  N   VAL A   3     -10.703  48.209  28.421  0.00  0.00    -0.297 N 
ATOM     75  H   VAL A   3     -10.769  48.160  29.458  0.00  0.00    +0.150 HD
ATOM     76  O   VAL A   2      -9.618  47.557  26.549  0.00  0.00    -0.273 OA
BRANCH  73  77
ATOM     77  CA  VAL A   2      -8.854  46.681  28.662  0.00  0.00    +0.148 C 
BRANCH  77  79
ATOM     78  C   GLN A   1      -7.684  48.527  29.722  0.00  0.00    +0.238 C 
ATOM     79  N   VAL A   2      -8.416  47.384  29.851  0.00  0.00    -0.297 N 
ATOM     80  H   VAL A   2      -8.658  47.020  30.795  0.00  0.00    +0.150 HD
ATOM     81  O   GLN A   1      -7.284  48.950  28.613  0.00  0.00    -0.274 OA
BRANCH  78  82
ATOM     82  CA  GLN A   1      -7.333  49.288  31.005  0.00  0.00    +0.145 C 
BRANCH  82  83
ATOM     83  N   GLN A   1      -8.412  49.367  31.971  0.00  0.00    -0.238 NA
ATOM     84  H   GLN A   1      -8.285  48.990  32.932  0.00  0.00    +0.142 HD
ENDBRANCH  82  83
BRANCH  82  85
ATOM     85  CB  GLN A   1      -6.085  48.665  31.644  0.00  0.00    +0.036 C 
BRANCH  85  86
ATOM     86  CG  GLN A   1      -5.407  49.723  32.546  0.00  0.00    +0.087 C 
BRANCH  86  87
ATOM     87  CD  GLN A   1      -4.474  49.123  33.563  0.00  0.00    +0.219 C 
ATOM     88  OE1 GLN A   1      -4.881  48.296  34.396  0.00  0.00    -0.275 OA
ATOM     89  NE2 GLN A   1      -3.188  49.530  33.513  0.00  0.00    -0.329 N 
ATOM     90 HE21 GLN A   1      -2.495  49.149  34.189  0.00  0.00    +0.145 HD
ATOM     91 HE22 GLN A   1      -2.890  50.225  32.799  0.00  0.00    +0.145 HD
ENDBRANCH  86  87
ENDBRANCH  85  86
ENDBRANCH  82  85
ENDBRANCH  78  82
ENDBRANCH  77  79
BRANCH  77  92
ATOM     92  CB  VAL A   2      -9.560  45.348  29.049  0.00  0.00    +0.027 C 
ATOM     93  CG2 VAL A   2      -8.591  44.448  29.869  0.00  0.00    +0.002 C 
ATOM     94  CG1 VAL A   2      -9.981  44.672  27.734  0.00  0.00    +0.002 C 
ENDBRANCH  77  92
ENDBRANCH  73  77
ENDBRANCH  72  74
BRANCH  72  95
ATOM     95  CB  VAL A   3     -12.687  49.625  28.588  0.00  0.00    +0.027 C 
ATOM     96  CG2 VAL A   3     -13.608  48.548  29.038  0.00  0.00    +0.002 C 
ATOM     97  CG1 VAL A   3     -13.517  50.692  27.844  0.00  0.00    +0.002 C 
ENDBRANCH  72  95
ENDBRANCH  68  72
ENDBRANCH  67  69
BRANCH  67  98
ATOM     98  CB  ILE A   4      -8.297  52.654  28.076  0.00  0.00    +0.027 C 
ATOM     99  CG2 ILE A   4      -7.403  53.643  27.359  0.00  0.00    +0.002 C 
BRANCH  98 100
ATOM    100  CG1 ILE A   4      -9.172  53.226  29.193  0.00  0.00    +0.002 C 
ATOM    101  CD1 ILE A   4      -8.373  53.618  30.467  0.00  0.00    +0.000 C 
ENDBRANCH  98 100
ENDBRANCH  67  98
ENDBRANCH  63  67
ENDBRANCH  62  64
BRANCH  62 102
ATOM    102  CB  TYR A   5      -6.435  48.292  25.328  0.00  0.00    +0.055 C 
BRANCH 102 103
ATOM    103  CG  TYR A   5      -5.590  47.774  24.176  0.00  0.00    -0.020 A 
ATOM    104  CD2 TYR A   5      -4.180  47.941  24.166  0.00  0.00    -0.001 A 
ATOM    105  CE2 TYR A   5      -3.413  47.492  23.052  0.00  0.00    +0.036 A 
ATOM    106  CZ  TYR A   5      -4.084  46.960  21.947  0.00  0.00    +0.134 A 
ATOM    107  CE1 TYR A   5      -5.485  46.844  21.916  0.00  0.00    +0.036 A 
ATOM    108  CD1 TYR A   5      -6.221  47.217  23.037  0.00  0.00    -0.001 A 
BRANCH 106 109
ATOM    109  OH  TYR A   5      -3.400  46.572  20.832  0.00  0.00    -0.506 OA
ATOM    110  HH  TYR A   5      -2.753  45.863  21.073  0.00  0.00    +0.292 HD
ENDBRANCH 106 109
ENDBRANCH 102 103
ENDBRANCH  62 102
ENDBRANCH  58  62
ENDBRANCH   1  59
BRANCH   1 111
ATOM    111  CB  GLN A   6     -11.028  47.560  23.276  0.00  0.00    +0.039 C 
BRANCH 111 112
ATOM    112  CG  GLN A   6     -10.404  46.202  23.369  0.00  0.00    +0.087 C 
BRANCH 112 113
ATOM    113  CD  GLN A   6     -11.421  45.078  23.674  0.00  0.00    +0.219 C 
ATOM    114  NE2 GLN A   6     -10.958  44.053  24.390  0.00  0.00    -0.329 N 
ATOM    115 HE21 GLN A   6      -9.962  44.035  24.688  0.00  0.00    +0.145 HD
ATOM    116 HE22 GLN A   6     -11.593  43.271  24.650  0.00  0.00    +0.145 HD
ATOM    117  OE1 GLN A   6     -12.605  45.151  23.290  0.00  0.00    -0.275 OA
ENDBRANCH 112 113
ENDBRANCH 111 112
ENDBRANCH   1 111
TORSDOF 47
REMARK  Name = ../refined-set-2016/4w97/4w97_pocket.pdb
REMARK  282 active torsions:
REMARK  status: ('A' for Active; 'I' for Inactive)
REMARK    1  A    between atoms: _1  and  _3
REMARK    2  A    between atoms: _3  and  _4
REMARK    3  A    between atoms: _3  and  _6
REMARK    4  A    between atoms: _6  and  _7
REMARK    5  A    between atoms: _10  and  _12
REMARK    6  A    between atoms: _12  and  _13
REMARK    7  A    between atoms: _12  and  _15
REMARK    8  A    between atoms: _15  and  _16
REMARK    9  A    between atoms: _22  and  _24
REMARK   10  A    between atoms: _24  and  _25
REMARK   11  A    between atoms: _24  and  _27
REMARK   12  A    between atoms: _27  and  _28
REMARK   13  A    between atoms: _31  and  _33
REMARK   14  A    between atoms: _33  and  _34
REMARK   15  A    between atoms: _33  and  _36
REMARK   16  A    between atoms: _36  and  _37
REMARK   17  A    between atoms: _40  and  _42
REMARK   18  A    between atoms: _42  and  _43
REMARK   19  A    between atoms: _42  and  _45
REMARK   20  A    between atoms: _45  and  _46
REMARK   21  A    between atoms: _52  and  _54
REMARK   22  A    between atoms: _54  and  _55
REMARK   23  A    between atoms: _54  and  _57
REMARK   24  A    between atoms: _57  and  _58
REMARK   25  A    between atoms: _63  and  _64
REMARK   26  A    between atoms: _66  and  _68
REMARK   27  A    between atoms: _68  and  _69
REMARK   28  A    between atoms: _68  and  _71
REMARK   29  A    between atoms: _71  and  _72
REMARK   30  A    between atoms: _74  and  _76
REMARK   31  A    between atoms: _76  and  _77
REMARK   32  A    between atoms: _80  and  _82
REMARK   33  A    between atoms: _82  and  _83
REMARK   34  A    between atoms: _82  and  _85
REMARK   35  A    between atoms: _85  and  _86
REMARK   36  A    between atoms: _89  and  _91
REMARK   37  A    between atoms: _91  and  _92
REMARK   38  A    between atoms: _91  and  _94
REMARK   39  A    between atoms: _94  and  _95
REMARK   40  A    between atoms: _95  and  _96
REMARK   41  A    between atoms: _101  and  _103
REMARK   42  A    between atoms: _103  and  _104
REMARK   43  A    between atoms: _103  and  _106
REMARK   44  A    between atoms: _109  and  _111
REMARK   45  A    between atoms: _111  and  _112
REMARK   46  A    between atoms: _111  and  _114
REMARK   47  A    between atoms: _117  and  _119
REMARK   48  A    between atoms: _119  and  _120
REMARK   49  A    between atoms: _119  and  _122
REMARK   50  A    between atoms: _122  and  _123
REMARK   51  A    between atoms: _126  and  _128
REMARK   52  A    between atoms: _128  and  _129
REMARK   53  A    between atoms: _128  and  _131
REMARK   54  A    between atoms: _131  and  _132
REMARK   55  A    between atoms: _137  and  _138
REMARK   56  A    between atoms: _140  and  _142
REMARK   57  A    between atoms: _142  and  _143
REMARK   58  A    between atoms: _142  and  _145
REMARK   59  A    between atoms: _145  and  _146
REMARK   60  A    between atoms: _146  and  _147
REMARK   61  A    between atoms: _152  and  _154
REMARK   62  A    between atoms: _154  and  _155
REMARK   63  A    between atoms: _154  and  _157
REMARK   64  A    between atoms: _157  and  _158
REMARK   65  A    between atoms: _161  and  _163
REMARK   66  A    between atoms: _163  and  _164
REMARK   67  A    between atoms: _163  and  _166
REMARK   68  A    between atoms: _166  and  _167
REMARK   69  A    between atoms: _167  and  _168
REMARK   70  A    between atoms: _171  and  _173
REMARK   71  A    between atoms: _173  and  _174
REMARK   72  A    between atoms: _177  and  _179
REMARK   73  A    between atoms: _179  and  _180
REMARK   74  A    between atoms: _179  and  _182
REMARK   75  A    between atoms: _182  and  _183
REMARK   76  A    between atoms: _183  and  _184
REMARK   77  A    between atoms: _189  and  _191
REMARK   78  A    between atoms: _191  and  _192
REMARK   79  A    between atoms: _191  and  _194
REMARK   80  A    between atoms: _194  and  _195
REMARK   81  A    between atoms: _195  and  _196
REMARK   82  A    between atoms: _196  and  _197
REMARK   83  A    between atoms: _206  and  _208
REMARK   84  A    between atoms: _208  and  _209
REMARK   85  A    between atoms: _212  and  _214
REMARK   86  A    between atoms: _214  and  _215
REMARK   87  A    between atoms: _214  and  _217
REMARK   88  A    between atoms: _217  and  _218
REMARK   89  A    between atoms: _223  and  _224
REMARK   90  A    between atoms: _226  and  _228
REMARK   91  A    between atoms: _228  and  _229
REMARK   92  A    between atoms: _228  and  _231
REMARK   93  A    between atoms: _231  and  _232
REMARK   94  A    between atoms: _235  and  _237
REMARK   95  A    between atoms: _237  and  _238
REMARK   96  A    between atoms: _237  and  _240
REMARK   97  A    between atoms: _240  and  _241
REMARK   98  A    between atoms: _241  and  _242
REMARK   99  A    between atoms: _245  and  _247
REMARK  100  A    between atoms: _247  and  _248
REMARK  101  A    between atoms: _247  and  _250
REMARK  102  A    between atoms: _250  and  _251
REMARK  103  A    between atoms: _254  and  _256
REMARK  104  A    between atoms: _256  and  _257
REMARK  105  A    between atoms: _256  and  _259
REMARK  106  A    between atoms: _259  and  _260
REMARK  107  A    between atoms: _260  and  _261
REMARK  108  A    between atoms: _261  and  _262
REMARK  109  A    between atoms: _271  and  _273
REMARK  110  A    between atoms: _273  and  _274
REMARK  111  A    between atoms: _273  and  _276
REMARK  112  A    between atoms: _276  and  _277
REMARK  113  A    between atoms: _282  and  _284
REMARK  114  A    between atoms: _284  and  _285
REMARK  115  A    between atoms: _284  and  _287
REMARK  116  A    between atoms: _287  and  _288
REMARK  117  A    between atoms: _288  and  _289
REMARK  118  A    between atoms: _289  and  _290
REMARK  119  A    between atoms: _290  and  _291
REMARK  120  A    between atoms: _295  and  _297
REMARK  121  A    between atoms: _297  and  _298
REMARK  122  A    between atoms: _297  and  _300
REMARK  123  A    between atoms: _300  and  _301
REMARK  124  A    between atoms: _301  and  _302
REMARK  125  A    between atoms: _307  and  _309
REMARK  126  A    between atoms: _309  and  _310
REMARK  127  A    between atoms: _309  and  _312
REMARK  128  A    between atoms: _312  and  _313
REMARK  129  A    between atoms: _313  and  _314
REMARK  130  A    between atoms: _319  and  _321
REMARK  131  A    between atoms: _321  and  _322
REMARK  132  A    between atoms: _321  and  _324
REMARK  133  A    between atoms: _324  and  _325
REMARK  134  A    between atoms: _325  and  _326
REMARK  135  A    between atoms: _326  and  _327
REMARK  136  A    between atoms: _336  and  _338
REMARK  137  A    between atoms: _338  and  _339
REMARK  138  A    between atoms: _338  and  _341
REMARK  139  A    between atoms: _341  and  _342
REMARK  140  A    between atoms: _342  and  _343
REMARK  141  A    between atoms: _345  and  _347
REMARK  142  A    between atoms: _347  and  _348
REMARK  143  A    between atoms: _347  and  _350
REMARK  144  A    between atoms: _350  and  _351
REMARK  145  A    between atoms: _361  and  _363
REMARK  146  A    between atoms: _363  and  _364
REMARK  147  A    between atoms: _363  and  _366
REMARK  148  A    between atoms: _366  and  _367
REMARK  149  A    between atoms: _370  and  _372
REMARK  150  A    between atoms: _372  and  _373
REMARK  151  A    between atoms: _372  and  _375
REMARK  152  A    between atoms: _375  and  _376
REMARK  153  A    between atoms: _379  and  _381
REMARK  154  A    between atoms: _381  and  _382
REMARK  155  A    between atoms: _381  and  _384
REMARK  156  A    between atoms: _384  and  _385
REMARK  157  A    between atoms: _388  and  _390
REMARK  158  A    between atoms: _390  and  _391
REMARK  159  A    between atoms: _390  and  _393
REMARK  160  A    between atoms: _393  and  _394
REMARK  161  A    between atoms: _399  and  _400
REMARK  162  A    between atoms: _402  and  _404
REMARK  163  A    between atoms: _404  and  _405
REMARK  164  A    between atoms: _404  and  _407
REMARK  165  A    between atoms: _407  and  _408
REMARK  166  A    between atoms: _408  and  _409
REMARK  167  A    between atoms: _409  and  _410
REMARK  168  A    between atoms: _419  and  _421
REMARK  169  A    between atoms: _421  and  _422
REMARK  170  A    between atoms: _421  and  _424
REMARK  171  A    between atoms: _424  and  _425
REMARK  172  A    between atoms: _431  and  _433
REMARK  173  A    between atoms: _433  and  _434
REMARK  174  A    between atoms: _433  and  _436
REMARK  175  A    between atoms: _436  and  _437
REMARK  176  A    between atoms: _440  and  _442
REMARK  177  A    between atoms: _442  and  _443
REMARK  178  A    between atoms: _442  and  _445
REMARK  179  A    between atoms: _445  and  _446
REMARK  180  A    between atoms: _446  and  _447
REMARK  181  A    between atoms: _447  and  _448
REMARK  182  A    between atoms: _457  and  _459
REMARK  183  A    between atoms: _459  and  _460
REMARK  184  A    between atoms: _459  and  _462
REMARK  185  A    between atoms: _462  and  _463
REMARK  186  A    between atoms: _466  and  _468
REMARK  187  A    between atoms: _468  and  _469
REMARK  188  A    between atoms: _468  and  _471
REMARK  189  A    between atoms: _471  and  _472
REMARK  190  A    between atoms: _475  and  _477
REMARK  191  A    between atoms: _477  and  _478
REMARK  192  A    between atoms: _477  and  _480
REMARK  193  A    between atoms: _480  and  _481
REMARK  194  A    between atoms: _484  and  _486
REMARK  195  A    between atoms: _486  and  _487
REMARK  196  A    between atoms: _486  and  _489
REMARK  197  A    between atoms: _489  and  _490
REMARK  198  A    between atoms: _500  and  _502
REMARK  199  A    between atoms: _502  and  _503
REMARK  200  A    between atoms: _502  and  _505
REMARK  201  A    between atoms: _508  and  _510
REMARK  202  A    between atoms: _510  and  _511
REMARK  203  A    between atoms: _510  and  _513
REMARK  204  A    between atoms: _513  and  _514
REMARK  205  A    between atoms: _516  and  _518
REMARK  206  A    between atoms: _518  and  _519
REMARK  207  A    between atoms: _518  and  _521
REMARK  208  A    between atoms: _524  and  _526
REMARK  209  A    between atoms: _526  and  _527
REMARK  210  A    between atoms: _526  and  _529
REMARK  211  A    between atoms: _529  and  _530
REMARK  212  A    between atoms: _530  and  _531
REMARK  213  A    between atoms: _531  and  _532
REMARK  214  A    between atoms: _541  and  _543
REMARK  215  A    between atoms: _543  and  _544
REMARK  216  A    between atoms: _543  and  _546
REMARK  217  A    between atoms: _546  and  _547
REMARK  218  A    between atoms: _547  and  _548
REMARK  219  A    between atoms: _551  and  _553
REMARK  220  A    between atoms: _553  and  _554
REMARK  221  A    between atoms: _553  and  _556
REMARK  222  A    between atoms: _556  and  _557
REMARK  223  A    between atoms: _557  and  _558
REMARK  224  A    between atoms: _563  and  _565
REMARK  225  A    between atoms: _565  and  _566
REMARK  226  A    between atoms: _565  and  _568
REMARK  227  A    between atoms: _568  and  _569
REMARK  228  A    between atoms: _572  and  _574
REMARK  229  A    between atoms: _574  and  _575
REMARK  230  A    between atoms: _574  and  _577
REMARK  231  A    between atoms: _580  and  _582
REMARK  232  A    between atoms: _582  and  _583
REMARK  233  A    between atoms: _582  and  _585
REMARK  234  A    between atoms: _585  and  _586
REMARK  235  A    between atoms: _588  and  _590
REMARK  236  A    between atoms: _590  and  _591
REMARK  237  A    between atoms: _590  and  _593
REMARK  238  A    between atoms: _596  and  _598
REMARK  239  A    between atoms: _598  and  _599
REMARK  240  A    between atoms: _598  and  _601
REMARK  241  A    between atoms: _601  and  _602
REMARK  242  A    between atoms: _602  and  _603
REMARK  243  A    between atoms: _603  and  _604
REMARK  244  A    between atoms: _613  and  _615
REMARK  245  A    between atoms: _615  and  _616
REMARK  246  A    between atoms: _615  and  _618
REMARK  247  A    between atoms: _618  and  _619
REMARK  248  A    between atoms: _629  and  _631
REMARK  249  A    between atoms: _631  and  _632
REMARK  250  A    between atoms: _631  and  _634
REMARK  251  A    between atoms: _634  and  _635
REMARK  252  A    between atoms: _640  and  _641
REMARK  253  A    between atoms: _643  and  _645
REMARK  254  A    between atoms: _645  and  _646
REMARK  255  A    between atoms: _645  and  _648
REMARK  256  A    between atoms: _648  and  _649
REMARK  257  A    between atoms: _649  and  _650
REMARK  258  A    between atoms: _650  and  _651
REMARK  259  A    between atoms: _661  and  _662
REMARK  260  A    between atoms: _667  and  _669
REMARK  261  A    between atoms: _669  and  _670
REMARK  262  A    between atoms: _672  and  _674
REMARK  263  A    between atoms: _674  and  _675
REMARK  264  A    between atoms: _678  and  _679
REMARK  265  A    between atoms: _684  and  _686
REMARK  266  A    between atoms: _686  and  _687
REMARK  267  A    between atoms: _686  and  _689
REMARK  268  A    between atoms: _689  and  _690
REMARK  269  A    between atoms: _693  and  _695
REMARK  270  A    between atoms: _695  and  _696
REMARK  271  A    between atoms: _695  and  _698
REMARK  272  A    between atoms: _698  and  _699
REMARK  273  A    between atoms: _702  and  _704
REMARK  274  A    between atoms: _704  and  _705
REMARK  275  A    between atoms: _708  and  _710
REMARK  276  A    between atoms: _710  and  _711
REMARK  277  A    between atoms: _710  and  _713
REMARK  278  A    between atoms: _713  and  _714
REMARK  279  A    between atoms: _714  and  _715
REMARK  280  A    between atoms: _720  and  _722
REMARK  281  A    between atoms: _722  and  _723
REMARK  282  A    between atoms: _722  and  _725
REMARK                            x       y       z     vdW  Elec       q    Type
REMARK                         _______ _______ _______ _____ _____    ______ ____
ROOT
ATOM      1  CA  ALA A   1      -0.681  53.578  17.583  0.00  0.00    +0.133 C 
ATOM      2  CB  ALA A   1      -1.100  52.179  17.104  0.00  0.00    +0.027 C 
ENDROOT
BRANCH   1   3
ATOM      3  N   ALA A   1      -1.870  54.325  18.015  0.00  0.00    -0.239 NA
ATOM      4  H   ALA A   1      -2.818  53.940  17.830  0.00  0.00    +0.142 HD
ENDBRANCH   1   3
BRANCH   1   5
ATOM      5  C   ALA A   1       0.159  54.258  16.506  0.00  0.00    +0.224 C 
ATOM      6  O   ALA A   1       1.321  53.898  16.296  0.00  0.00    -0.287 OA
ENDBRANCH   1   5
TORSDOF 2
REMARK  Name = ../refined-set-2016/4w97/4w97_pocket.pdb
REMARK  282 active torsions:
REMARK  status: ('A' for Active; 'I' for Inactive)
REMARK    1  A    between atoms: _1  and  _3
REMARK    2  A    between atoms: _3  and  _4
REMARK    3  A    between atoms: _3  and  _6
REMARK    4  A    between atoms: _6  and  _7
REMARK    5  A    between atoms: _10  and  _12
REMARK    6  A    between atoms: _12  and  _13
REMARK    7  A    between atoms: _12  and  _15
REMARK    8  A    between atoms: _15  and  _16
REMARK    9  A    between atoms: _22  and  _24
REMARK   10  A    between atoms: _24  and  _25
REMARK   11  A    between atoms: _24  and  _27
REMARK   12  A    between atoms: _27  and  _28
REMARK   13  A    between atoms: _31  and  _33
REMARK   14  A    between atoms: _33  and  _34
REMARK   15  A    between atoms: _33  and  _36
REMARK   16  A    between atoms: _36  and  _37
REMARK   17  A    between atoms: _40  and  _42
REMARK   18  A    between atoms: _42  and  _43
REMARK   19  A    between atoms: _42  and  _45
REMARK   20  A    between atoms: _45  and  _46
REMARK   21  A    between atoms: _52  and  _54
REMARK   22  A    between atoms: _54  and  _55
REMARK   23  A    between atoms: _54  and  _57
REMARK   24  A    between atoms: _57  and  _58
REMARK   25  A    between atoms: _63  and  _64
REMARK   26  A    between atoms: _66  and  _68
REMARK   27  A    between atoms: _68  and  _69
REMARK   28  A    between atoms: _68  and  _71
REMARK   29  A    between atoms: _71  and  _72
REMARK   30  A    between atoms: _74  and  _76
REMARK   31  A    between atoms: _76  and  _77
REMARK   32  A    between atoms: _80  and  _82
REMARK   33  A    between atoms: _82  and  _83
REMARK   34  A    between atoms: _82  and  _85
REMARK   35  A    between atoms: _85  and  _86
REMARK   36  A    between atoms: _89  and  _91
REMARK   37  A    between atoms: _91  and  _92
REMARK   38  A    between atoms: _91  and  _94
REMARK   39  A    between atoms: _94  and  _95
REMARK   40  A    between atoms: _95  and  _96
REMARK   41  A    between atoms: _101  and  _103
REMARK   42  A    between atoms: _103  and  _104
REMARK   43  A    between atoms: _103  and  _106
REMARK   44  A    between atoms: _109  and  _111
REMARK   45  A    between atoms: _111  and  _112
REMARK   46  A    between atoms: _111  and  _114
REMARK   47  A    between atoms: _117  and  _119
REMARK   48  A    between atoms: _119  and  _120
REMARK   49  A    between atoms: _119  and  _122
REMARK   50  A    between atoms: _122  and  _123
REMARK   51  A    between atoms: _126  and  _128
REMARK   52  A    between atoms: _128  and  _129
REMARK   53  A    between atoms: _128  and  _131
REMARK   54  A    between atoms: _131  and  _132
REMARK   55  A    between atoms: _137  and  _138
REMARK   56  A    between atoms: _140  and  _142
REMARK   57  A    between atoms: _142  and  _143
REMARK   58  A    between atoms: _142  and  _145
REMARK   59  A    between atoms: _145  and  _146
REMARK   60  A    between atoms: _146  and  _147
REMARK   61  A    between atoms: _152  and  _154
REMARK   62  A    between atoms: _154  and  _155
REMARK   63  A    between atoms: _154  and  _157
REMARK   64  A    between atoms: _157  and  _158
REMARK   65  A    between atoms: _161  and  _163
REMARK   66  A    between atoms: _163  and  _164
REMARK   67  A    between atoms: _163  and  _166
REMARK   68  A    between atoms: _166  and  _167
REMARK   69  A    between atoms: _167  and  _168
REMARK   70  A    between atoms: _171  and  _173
REMARK   71  A    between atoms: _173  and  _174
REMARK   72  A    between atoms: _177  and  _179
REMARK   73  A    between atoms: _179  and  _180
REMARK   74  A    between atoms: _179  and  _182
REMARK   75  A    between atoms: _182  and  _183
REMARK   76  A    between atoms: _183  and  _184
REMARK   77  A    between atoms: _189  and  _191
REMARK   78  A    between atoms: _191  and  _192
REMARK   79  A    between atoms: _191  and  _194
REMARK   80  A    between atoms: _194  and  _195
REMARK   81  A    between atoms: _195  and  _196
REMARK   82  A    between atoms: _196  and  _197
REMARK   83  A    between atoms: _206  and  _208
REMARK   84  A    between atoms: _208  and  _209
REMARK   85  A    between atoms: _212  and  _214
REMARK   86  A    between atoms: _214  and  _215
REMARK   87  A    between atoms: _214  and  _217
REMARK   88  A    between atoms: _217  and  _218
REMARK   89  A    between atoms: _223  and  _224
REMARK   90  A    between atoms: _226  and  _228
REMARK   91  A    between atoms: _228  and  _229
REMARK   92  A    between atoms: _228  and  _231
REMARK   93  A    between atoms: _231  and  _232
REMARK   94  A    between atoms: _235  and  _237
REMARK   95  A    between atoms: _237  and  _238
REMARK   96  A    between atoms: _237  and  _240
REMARK   97  A    between atoms: _240  and  _241
REMARK   98  A    between atoms: _241  and  _242
REMARK   99  A    between atoms: _245  and  _247
REMARK  100  A    between atoms: _247  and  _248
REMARK  101  A    between atoms: _247  and  _250
REMARK  102  A    between atoms: _250  and  _251
REMARK  103  A    between atoms: _254  and  _256
REMARK  104  A    between atoms: _256  and  _257
REMARK  105  A    between atoms: _256  and  _259
REMARK  106  A    between atoms: _259  and  _260
REMARK  107  A    between atoms: _260  and  _261
REMARK  108  A    between atoms: _261  and  _262
REMARK  109  A    between atoms: _271  and  _273
REMARK  110  A    between atoms: _273  and  _274
REMARK  111  A    between atoms: _273  and  _276
REMARK  112  A    between atoms: _276  and  _277
REMARK  113  A    between atoms: _282  and  _284
REMARK  114  A    between atoms: _284  and  _285
REMARK  115  A    between atoms: _284  and  _287
REMARK  116  A    between atoms: _287  and  _288
REMARK  117  A    between atoms: _288  and  _289
REMARK  118  A    between atoms: _289  and  _290
REMARK  119  A    between atoms: _290  and  _291
REMARK  120  A    between atoms: _295  and  _297
REMARK  121  A    between atoms: _297  and  _298
REMARK  122  A    between atoms: _297  and  _300
REMARK  123  A    between atoms: _300  and  _301
REMARK  124  A    between atoms: _301  and  _302
REMARK  125  A    between atoms: _307  and  _309
REMARK  126  A    between atoms: _309  and  _310
REMARK  127  A    between atoms: _309  and  _312
REMARK  128  A    between atoms: _312  and  _313
REMARK  129  A    between atoms: _313  and  _314
REMARK  130  A    between atoms: _319  and  _321
REMARK  131  A    between atoms: _321  and  _322
REMARK  132  A    between atoms: _321  and  _324
REMARK  133  A    between atoms: _324  and  _325
REMARK  134  A    between atoms: _325  and  _326
REMARK  135  A    between atoms: _326  and  _327
REMARK  136  A    between atoms: _336  and  _338
REMARK  137  A    between atoms: _338  and  _339
REMARK  138  A    between atoms: _338  and  _341
REMARK  139  A    between atoms: _341  and  _342
REMARK  140  A    between atoms: _342  and  _343
REMARK  141  A    between atoms: _345  and  _347
REMARK  142  A    between atoms: _347  and  _348
REMARK  143  A    between atoms: _347  and  _350
REMARK  144  A    between atoms: _350  and  _351
REMARK  145  A    between atoms: _361  and  _363
REMARK  146  A    between atoms: _363  and  _364
REMARK  147  A    between atoms: _363  and  _366
REMARK  148  A    between atoms: _366  and  _367
REMARK  149  A    between atoms: _370  and  _372
REMARK  150  A    between atoms: _372  and  _373
REMARK  151  A    between atoms: _372  and  _375
REMARK  152  A    between atoms: _375  and  _376
REMARK  153  A    between atoms: _379  and  _381
REMARK  154  A    between atoms: _381  and  _382
REMARK  155  A    between atoms: _381  and  _384
REMARK  156  A    between atoms: _384  and  _385
REMARK  157  A    between atoms: _388  and  _390
REMARK  158  A    between atoms: _390  and  _391
REMARK  159  A    between atoms: _390  and  _393
REMARK  160  A    between atoms: _393  and  _394
REMARK  161  A    between atoms: _399  and  _400
REMARK  162  A    between atoms: _402  and  _404
REMARK  163  A    between atoms: _404  and  _405
REMARK  164  A    between atoms: _404  and  _407
REMARK  165  A    between atoms: _407  and  _408
REMARK  166  A    between atoms: _408  and  _409
REMARK  167  A    between atoms: _409  and  _410
REMARK  168  A    between atoms: _419  and  _421
REMARK  169  A    between atoms: _421  and  _422
REMARK  170  A    between atoms: _421  and  _424
REMARK  171  A    between atoms: _424  and  _425
REMARK  172  A    between atoms: _431  and  _433
REMARK  173  A    between atoms: _433  and  _434
REMARK  174  A    between atoms: _433  and  _436
REMARK  175  A    between atoms: _436  and  _437
REMARK  176  A    between atoms: _440  and  _442
REMARK  177  A    between atoms: _442  and  _443
REMARK  178  A    between atoms: _442  and  _445
REMARK  179  A    between atoms: _445  and  _446
REMARK  180  A    between atoms: _446  and  _447
REMARK  181  A    between atoms: _447  and  _448
REMARK  182  A    between atoms: _457  and  _459
REMARK  183  A    between atoms: _459  and  _460
REMARK  184  A    between atoms: _459  and  _462
REMARK  185  A    between atoms: _462  and  _463
REMARK  186  A    between atoms: _466  and  _468
REMARK  187  A    between atoms: _468  and  _469
REMARK  188  A    between atoms: _468  and  _471
REMARK  189  A    between atoms: _471  and  _472
REMARK  190  A    between atoms: _475  and  _477
REMARK  191  A    between atoms: _477  and  _478
REMARK  192  A    between atoms: _477  and  _480
REMARK  193  A    between atoms: _480  and  _481
REMARK  194  A    between atoms: _484  and  _486
REMARK  195  A    between atoms: _486  and  _487
REMARK  196  A    between atoms: _486  and  _489
REMARK  197  A    between atoms: _489  and  _490
REMARK  198  A    between atoms: _500  and  _502
REMARK  199  A    between atoms: _502  and  _503
REMARK  200  A    between atoms: _502  and  _505
REMARK  201  A    between atoms: _508  and  _510
REMARK  202  A    between atoms: _510  and  _511
REMARK  203  A    between atoms: _510  and  _513
REMARK  204  A    between atoms: _513  and  _514
REMARK  205  A    between atoms: _516  and  _518
REMARK  206  A    between atoms: _518  and  _519
REMARK  207  A    between atoms: _518  and  _521
REMARK  208  A    between atoms: _524  and  _526
REMARK  209  A    between atoms: _526  and  _527
REMARK  210  A    between atoms: _526  and  _529
REMARK  211  A    between atoms: _529  and  _530
REMARK  212  A    between atoms: _530  and  _531
REMARK  213  A    between atoms: _531  and  _532
REMARK  214  A    between atoms: _541  and  _543
REMARK  215  A    between atoms: _543  and  _544
REMARK  216  A    between atoms: _543  and  _546
REMARK  217  A    between atoms: _546  and  _547
REMARK  218  A    between atoms: _547  and  _548
REMARK  219  A    between atoms: _551  and  _553
REMARK  220  A    between atoms: _553  and  _554
REMARK  221  A    between atoms: _553  and  _556
REMARK  222  A    between atoms: _556  and  _557
REMARK  223  A    between atoms: _557  and  _558
REMARK  224  A    between atoms: _563  and  _565
REMARK  225  A    between atoms: _565  and  _566
REMARK  226  A    between atoms: _565  and  _568
REMARK  227  A    between atoms: _568  and  _569
REMARK  228  A    between atoms: _572  and  _574
REMARK  229  A    between atoms: _574  and  _575
REMARK  230  A    between atoms: _574  and  _577
REMARK  231  A    between atoms: _580  and  _582
REMARK  232  A    between atoms: _582  and  _583
REMARK  233  A    between atoms: _582  and  _585
REMARK  234  A    between atoms: _585  and  _586
REMARK  235  A    between atoms: _588  and  _590
REMARK  236  A    between atoms: _590  and  _591
REMARK  237  A    between atoms: _590  and  _593
REMARK  238  A    between atoms: _596  and  _598
REMARK  239  A    between atoms: _598  and  _599
REMARK  240  A    between atoms: _598  and  _601
REMARK  241  A    between atoms: _601  and  _602
REMARK  242  A    between atoms: _602  and  _603
REMARK  243  A    between atoms: _603  and  _604
REMARK  244  A    between atoms: _613  and  _615
REMARK  245  A    between atoms: _615  and  _616
REMARK  246  A    between atoms: _615  and  _618
REMARK  247  A    between atoms: _618  and  _619
REMARK  248  A    between atoms: _629  and  _631
REMARK  249  A    between atoms: _631  and  _632
REMARK  250  A    between atoms: _631  and  _634
REMARK  251  A    between atoms: _634  and  _635
REMARK  252  A    between atoms: _640  and  _641
REMARK  253  A    between atoms: _643  and  _645
REMARK  254  A    between atoms: _645  and  _646
REMARK  255  A    between atoms: _645  and  _648
REMARK  256  A    between atoms: _648  and  _649
REMARK  257  A    between atoms: _649  and  _650
REMARK  258  A    between atoms: _650  and  _651
REMARK  259  A    between atoms: _661  and  _662
REMARK  260  A    between atoms: _667  and  _669
REMARK  261  A    between atoms: _669  and  _670
REMARK  262  A    between atoms: _672  and  _674
REMARK  263  A    between atoms: _674  and  _675
REMARK  264  A    between atoms: _678  and  _679
REMARK  265  A    between atoms: _684  and  _686
REMARK  266  A    between atoms: _686  and  _687
REMARK  267  A    between atoms: _686  and  _689
REMARK  268  A    between atoms: _689  and  _690
REMARK  269  A    between atoms: _693  and  _695
REMARK  270  A    between atoms: _695  and  _696
REMARK  271  A    between atoms: _695  and  _698
REMARK  272  A    between atoms: _698  and  _699
REMARK  273  A    between atoms: _702  and  _704
REMARK  274  A    between atoms: _704  and  _705
REMARK  275  A    between atoms: _708  and  _710
REMARK  276  A    between atoms: _710  and  _711
REMARK  277  A    between atoms: _710  and  _713
REMARK  278  A    between atoms: _713  and  _714
REMARK  279  A    between atoms: _714  and  _715
REMARK  280  A    between atoms: _720  and  _722
REMARK  281  A    between atoms: _722  and  _723
REMARK  282  A    between atoms: _722  and  _725
REMARK                            x       y       z     vdW  Elec       q    Type
REMARK                         _______ _______ _______ _____ _____    ______ ____
ROOT
ATOM      1  CA  ASN A   6       0.317  43.357  18.765  0.00  0.00    +0.158 C 
ENDROOT
BRANCH   1   2
ATOM      2  C   ASN A   6       0.990  42.209  17.984  0.00  0.00    +0.241 C 
ATOM      3  O   ASN A   6       0.531  41.068  18.012  0.00  0.00    -0.273 OA
ATOM      4  N   LYS A   7       2.140  42.496  17.400  0.00  0.00    -0.297 N 
ATOM      5  H   LYS A   7       2.534  43.454  17.490  0.00  0.00    +0.150 HD
BRANCH   4   6
ATOM      6  CA  LYS A   7       2.866  41.491  16.631  0.00  0.00    +0.149 C 
BRANCH   6   7
ATOM      7  C   LYS A   7       3.315  40.371  17.536  0.00  0.00    +0.241 C 
ATOM      8  N   GLN A   8       3.720  40.751  18.741  0.00  0.00    -0.297 N 
ATOM      9  H   GLN A   8       3.640  41.747  19.031  0.00  0.00    +0.150 HD
ATOM     10  O   LYS A   7       3.277  39.195  17.152  0.00  0.00    -0.273 OA
BRANCH   8  11
ATOM     11  CA  GLN A   8       4.280  39.757  19.659  0.00  0.00    +0.149 C 
BRANCH  11  12
ATOM     12  C   GLN A   8       3.198  38.785  20.077  0.00  0.00    +0.241 C 
ATOM     13  N   GLN A   9       2.027  39.274  20.445  0.00  0.00    -0.297 N 
ATOM     14  H   GLN A   9       1.831  40.295  20.427  0.00  0.00    +0.150 HD
ATOM     15  O   GLN A   8       3.440  37.545  20.038  0.00  0.00    -0.273 OA
BRANCH  13  16
ATOM     16  CA  GLN A   9       0.994  38.279  20.891  0.00  0.00    +0.149 C 
BRANCH  16  17
ATOM     17  C   GLN A   9       0.441  37.502  19.713  0.00  0.00    +0.241 C 
ATOM     18  O   GLN A   9       0.066  36.317  19.892  0.00  0.00    -0.273 OA
ATOM     19  N   ARG A  10       0.424  38.079  18.522  0.00  0.00    -0.298 N 
ATOM     20  H   ARG A  10       0.714  39.072  18.418  0.00  0.00    +0.150 HD
BRANCH  19  21
ATOM     21  CA  ARG A  10      -0.006  37.310  17.349  0.00  0.00    +0.137 C 
BRANCH  21  22
ATOM     22  C   ARG A  10       0.964  36.147  17.104  0.00  0.00    +0.227 C 
ATOM     23  O   ARG A  10       0.528  34.977  16.854  0.00  0.00    -0.286 OA
ENDBRANCH  21  22
BRANCH  21  24
ATOM     24  CB  ARG A  10      -0.066  38.185  16.112  0.00  0.00    +0.031 C 
BRANCH  24  25
ATOM     25  CG  ARG A  10      -0.497  37.349  14.907  0.00  0.00    +0.045 C 
BRANCH  25  26
ATOM     26  CD  ARG A  10      -0.390  38.195  13.672  0.00  0.00    +0.174 C 
BRANCH  26  27
ATOM     27  NE  ARG A  10      -1.293  37.770  12.625  0.00  0.00    -0.265 N 
ATOM     28  HE  ARG A  10      -2.208  38.258  12.547  0.00  0.00    +0.259 HD
ATOM     29  CZ  ARG A  10      -1.035  36.802  11.759  0.00  0.00    +0.342 C 
ATOM     30  NH2 ARG A  10       0.120  36.134  11.810  0.00  0.00    -0.292 N 
ATOM     31 HH21 ARG A  10       0.827  36.372  12.535  0.00  0.00    +0.255 HD
ATOM     32 HH22 ARG A  10       0.313  35.375  11.125  0.00  0.00    +0.255 HD
ATOM     33  NH1 ARG A  10      -1.947  36.507  10.840  0.00  0.00    -0.292 N 
ATOM     34 HH11 ARG A  10      -2.844  37.033  10.810  0.00  0.00    +0.255 HD
ATOM     35 HH12 ARG A  10      -1.764  35.750  10.150  0.00  0.00    +0.255 HD
ENDBRANCH  26  27
ENDBRANCH  25  26
ENDBRANCH  24  25
ENDBRANCH  21  24
ENDBRANCH  19  21
ENDBRANCH  16  17
BRANCH  16  36
ATOM     36  CB  GLN A   9      -0.135  38.947  21.731  0.00  0.00    +0.039 C 
BRANCH  36  37
ATOM     37  CG  GLN A   9      -0.921  40.103  21.042  0.00  0.00    +0.087 C 
BRANCH  37  38
ATOM     38  CD  GLN A   9      -2.039  39.615  20.156  0.00  0.00    +0.219 C 
ATOM     39  OE1 GLN A   9      -2.848  38.741  20.582  0.00  0.00    -0.275 OA
ATOM     40  NE2 GLN A   9      -2.139  40.142  18.941  0.00  0.00    -0.329 N 
ATOM     41 HE21 GLN A   9      -1.454  40.859  18.627  0.00  0.00    +0.145 HD
ATOM     42 HE22 GLN A   9      -2.902  39.838  18.304  0.00  0.00    +0.145 HD
ENDBRANCH  37  38
ENDBRANCH  36  37
ENDBRANCH  16  36
ENDBRANCH  13  16
ENDBRANCH  11  12
BRANCH  11  43
ATOM     43  CB  GLN A   8       4.871  40.437  20.866  0.00  0.00    +0.039 C 
BRANCH  43  44
ATOM     44  CG  GLN A   8       5.412  39.486  21.882  0.00  0.00    +0.087 C 
BRANCH  44  45
ATOM     45  CD  GLN A   8       6.040  40.183  23.097  0.00  0.00    +0.219 C 
ATOM     46  NE2 GLN A   8       6.666  39.370  23.973  0.00  0.00    -0.329 N 
ATOM     47 HE21 GLN A   8       7.090  39.764  24.837  0.00  0.00    +0.145 HD
ATOM     48 HE22 GLN A   8       6.725  38.349  23.784  0.00  0.00    +0.145 HD
ATOM     49  OE1 GLN A   8       5.939  41.417  23.272  0.00  0.00    -0.275 OA
ENDBRANCH  44  45
ENDBRANCH  43  44
ENDBRANCH  11  43
ENDBRANCH   8  11
ENDBRANCH   6   7
BRANCH   6  50
ATOM     50  CB  LYS A   7       4.076  42.114  15.948  0.00  0.00    +0.029 C 
BRANCH  50  51
ATOM     51  CG  LYS A   7       3.701  42.986  14.810  0.00  0.00    +0.000 C 
BRANCH  51  52
ATOM     52  CD  LYS A   7       4.965  43.517  14.117  0.00  0.00    -0.024 C 
BRANCH  52  53
ATOM     53  CE  LYS A   7       4.677  44.656  13.180  0.00  0.00    -0.086 C 
BRANCH  53  54
ATOM     54  NZ  LYS A   7       5.921  45.085  12.476  0.00  0.00    +0.380 N 
ATOM     55  HZ1 LYS A   7       6.625  45.394  13.176  0.00  0.00    -0.089 HD
ATOM     56  HZ2 LYS A   7       6.301  44.286  11.929  0.00  0.00    -0.089 HD
ATOM     57  HZ3 LYS A   7       5.700  45.873  11.834  0.00  0.00    -0.089 HD
ENDBRANCH  53  54
ENDBRANCH  52  53
ENDBRANCH  51  52
ENDBRANCH  50  51
ENDBRANCH   6  50
ENDBRANCH   4   6
ENDBRANCH   1   2
BRANCH   1  60
ATOM     58  C   ARG A   5       1.982  43.352  20.569  0.00  0.00    +0.241 C 
ATOM     59  O   ARG A   5       1.750  42.117  20.794  0.00  0.00    -0.273 OA
ATOM     60  N   ASN A   6       1.320  44.038  19.641  0.00  0.00    -0.297 N 
ATOM     61  H   ASN A   6       1.501  45.055  19.524  0.00  0.00    +0.150 HD
BRANCH  58  62
ATOM     62  CA  ARG A   5       2.991  44.110  21.403  0.00  0.00    +0.149 C 
BRANCH  62  64
ATOM     63  C   ASP A   4       4.490  44.716  19.584  0.00  0.00    +0.241 C 
ATOM     64  N   ARG A   5       3.687  45.110  20.582  0.00  0.00    -0.297 N 
ATOM     65  H   ARG A   5       3.557  46.124  20.775  0.00  0.00    +0.150 HD
ATOM     66  O   ASP A   4       4.705  43.510  19.305  0.00  0.00    -0.273 OA
BRANCH  63  67
ATOM     67  CA  ASP A   4       5.195  45.843  18.797  0.00  0.00    +0.160 C 
BRANCH  67  69
ATOM     68  C   GLU A   3       3.174  46.528  17.683  0.00  0.00    +0.241 C 
ATOM     69  N   ASP A   4       4.231  46.883  18.417  0.00  0.00    -0.297 N 
ATOM     70  H   ASP A   4       4.368  47.871  18.712  0.00  0.00    +0.150 HD
ATOM     71  O   GLU A   3       3.025  45.364  17.275  0.00  0.00    -0.273 OA
BRANCH  68  72
ATOM     72  CA  GLU A   3       2.153  47.616  17.342  0.00  0.00    +0.149 C 
BRANCH  72  75
ATOM     73  C   ILE A   2       1.402  48.104  19.538  0.00  0.00    +0.241 C 
ATOM     74  O   ILE A   2       0.995  46.915  19.640  0.00  0.00    -0.273 OA
ATOM     75  N   GLU A   3       2.033  48.538  18.462  0.00  0.00    -0.297 N 
ATOM     76  H   GLU A   3       2.428  49.499  18.417  0.00  0.00    +0.150 HD
BRANCH  73  77
ATOM     77  CA  ILE A   2       1.253  49.041  20.748  0.00  0.00    +0.148 C 
BRANCH  77  80
ATOM     78  C   TYR A   1       3.596  49.066  21.307  0.00  0.00    +0.239 C 
ATOM     79  O   TYR A   1       3.580  47.823  21.448  0.00  0.00    -0.274 OA
ATOM     80  N   ILE A   2       2.517  49.744  20.965  0.00  0.00    -0.297 N 
ATOM     81  H   ILE A   2       2.565  50.776  20.850  0.00  0.00    +0.150 HD
BRANCH  78  82
ATOM     82  CA  TYR A   1       4.912  49.808  21.489  0.00  0.00    +0.149 C 
BRANCH  82  83
ATOM     83  N   TYR A   1       4.950  51.154  20.875  0.00  0.00    -0.238 NA
ATOM     84  H   TYR A   1       4.948  52.005  21.473  0.00  0.00    +0.142 HD
ENDBRANCH  82  83
BRANCH  82  85
ATOM     85  CB  TYR A   1       5.246  49.893  22.980  0.00  0.00    +0.053 C 
BRANCH  85  86
ATOM     86  CG  TYR A   1       4.296  50.745  23.788  0.00  0.00    -0.020 A 
ATOM     87  CD2 TYR A   1       3.128  50.222  24.324  0.00  0.00    -0.001 A 
ATOM     88  CE2 TYR A   1       2.252  51.004  25.066  0.00  0.00    +0.036 A 
ATOM     89  CZ  TYR A   1       2.568  52.334  25.274  0.00  0.00    +0.134 A 
ATOM     90  CE1 TYR A   1       3.706  52.867  24.764  0.00  0.00    +0.036 A 
ATOM     91  CD1 TYR A   1       4.581  52.095  24.012  0.00  0.00    -0.001 A 
BRANCH  89  92
ATOM     92  OH  TYR A   1       1.710  53.072  26.024  0.00  0.00    -0.506 OA
ATOM     93  HH  TYR A   1       2.181  53.408  26.827  0.00  0.00    +0.292 HD
ENDBRANCH  89  92
ENDBRANCH  85  86
ENDBRANCH  82  85
ENDBRANCH  78  82
ENDBRANCH  77  80
BRANCH  77  94
ATOM     94  CB  ILE A   2       0.065  50.011  20.566  0.00  0.00    +0.027 C 
ATOM     95  CG2 ILE A   2      -1.234  49.232  20.146  0.00  0.00    +0.002 C 
BRANCH  94  96
ATOM     96  CG1 ILE A   2      -0.112  50.837  21.842  0.00  0.00    +0.002 C 
ATOM     97  CD1 ILE A   2      -1.217  51.885  21.699  0.00  0.00    +0.000 C 
ENDBRANCH  94  96
ENDBRANCH  77  94
ENDBRANCH  73  77
ENDBRANCH  72  75
BRANCH  72  98
ATOM     98  CB  GLU A   3       2.502  48.358  16.046  0.00  0.00    +0.041 C 
BRANCH  98  99
ATOM     99  CG  GLU A   3       2.712  47.389  14.808  0.00  0.00    +0.116 C 
BRANCH  99 100
ATOM    100  CD  GLU A   3       1.444  46.563  14.405  0.00  0.00    +0.365 C 
ATOM    101  OE2 GLU A   3       0.334  46.751  14.965  0.00  0.00    -0.246 OA
ATOM    102  OE1 GLU A   3       1.596  45.681  13.517  0.00  0.00    -0.246 OA
ENDBRANCH  99 100
ENDBRANCH  98  99
ENDBRANCH  72  98
ENDBRANCH  68  72
ENDBRANCH  67  69
BRANCH  67 103
ATOM    103  CB  ASP A   4       6.335  46.407  19.662  0.00  0.00    +0.143 C 
BRANCH 103 104
ATOM    104  CG  ASP A   4       7.198  47.450  18.926  0.00  0.00    +0.367 C 
ATOM    105  OD2 ASP A   4       7.857  48.252  19.612  0.00  0.00    -0.246 OA
ATOM    106  OD1 ASP A   4       7.206  47.452  17.679  0.00  0.00    -0.246 OA
ENDBRANCH 103 104
ENDBRANCH  67 103
ENDBRANCH  63  67
ENDBRANCH  62  64
BRANCH  62 107
ATOM    107  CB  ARG A   5       2.271  44.780  22.608  0.00  0.00    +0.033 C 
BRANCH 107 108
ATOM    108  CG  ARG A   5       3.247  45.261  23.674  0.00  0.00    +0.045 C 
BRANCH 108 109
ATOM    109  CD  ARG A   5       4.112  44.182  24.256  0.00  0.00    +0.174 C 
BRANCH 109 110
ATOM    110  NE  ARG A   5       4.661  44.627  25.566  0.00  0.00    -0.265 N 
ATOM    111  CZ  ARG A   5       5.480  43.893  26.302  0.00  0.00    +0.342 C 
ATOM    112  NH2 ARG A   5       5.869  44.348  27.496  0.00  0.00    -0.292 N 
ATOM    113 HH21 ARG A   5       6.512  43.781  28.084  0.00  0.00    +0.255 HD
ATOM    114 HH22 ARG A   5       5.528  45.269  27.838  0.00  0.00    +0.255 HD
ATOM    115  NH1 ARG A   5       5.913  42.675  25.884  0.00  0.00    -0.292 N 
ATOM    116 HH11 ARG A   5       6.557  42.119  26.482  0.00  0.00    +0.255 HD
ATOM    117 HH12 ARG A   5       5.601  42.299  24.966  0.00  0.00    +0.255 HD
ATOM    118  HE  ARG A   5       4.386  45.565  25.922  0.00  0.00    +0.259 HD
ENDBRANCH 109 110
ENDBRANCH 108 109
ENDBRANCH 107 108
ENDBRANCH  62 107
ENDBRANCH  58  62
ENDBRANCH   1  60
BRANCH   1 119
ATOM    119  CB  ASN A   6      -0.311  44.388  17.814  0.00  0.00    +0.114 C 
BRANCH 119 120
ATOM    120  CG  ASN A   6      -1.299  43.768  16.825  0.00  0.00    +0.222 C 
ATOM    121  OD1 ASN A   6      -1.948  42.768  17.137  0.00  0.00    -0.275 OA
ATOM    122  ND2 ASN A   6      -1.453  44.384  15.640  0.00  0.00    -0.329 N 
ATOM    123 HD21 ASN A   6      -0.886  45.226  15.414  0.00  0.00    +0.145 HD
ATOM    124 HD22 ASN A   6      -2.139  44.018  14.949  0.00  0.00    +0.145 HD
ENDBRANCH 119 120
ENDBRANCH   1 119
TORSDOF 51
REMARK  Name = ../refined-set-2016/4w97/4w97_pocket.pdb
REMARK  282 active torsions:
REMARK  status: ('A' for Active; 'I' for Inactive)
REMARK    1  A    between atoms: _1  and  _3
REMARK    2  A    between atoms: _3  and  _4
REMARK    3  A    between atoms: _3  and  _6
REMARK    4  A    between atoms: _6  and  _7
REMARK    5  A    between atoms: _10  and  _12
REMARK    6  A    between atoms: _12  and  _13
REMARK    7  A    between atoms: _12  and  _15
REMARK    8  A    between atoms: _15  and  _16
REMARK    9  A    between atoms: _22  and  _24
REMARK   10  A    between atoms: _24  and  _25
REMARK   11  A    between atoms: _24  and  _27
REMARK   12  A    between atoms: _27  and  _28
REMARK   13  A    between atoms: _31  and  _33
REMARK   14  A    between atoms: _33  and  _34
REMARK   15  A    between atoms: _33  and  _36
REMARK   16  A    between atoms: _36  and  _37
REMARK   17  A    between atoms: _40  and  _42
REMARK   18  A    between atoms: _42  and  _43
REMARK   19  A    between atoms: _42  and  _45
REMARK   20  A    between atoms: _45  and  _46
REMARK   21  A    between atoms: _52  and  _54
REMARK   22  A    between atoms: _54  and  _55
REMARK   23  A    between atoms: _54  and  _57
REMARK   24  A    between atoms: _57  and  _58
REMARK   25  A    between atoms: _63  and  _64
REMARK   26  A    between atoms: _66  and  _68
REMARK   27  A    between atoms: _68  and  _69
REMARK   28  A    between atoms: _68  and  _71
REMARK   29  A    between atoms: _71  and  _72
REMARK   30  A    between atoms: _74  and  _76
REMARK   31  A    between atoms: _76  and  _77
REMARK   32  A    between atoms: _80  and  _82
REMARK   33  A    between atoms: _82  and  _83
REMARK   34  A    between atoms: _82  and  _85
REMARK   35  A    between atoms: _85  and  _86
REMARK   36  A    between atoms: _89  and  _91
REMARK   37  A    between atoms: _91  and  _92
REMARK   38  A    between atoms: _91  and  _94
REMARK   39  A    between atoms: _94  and  _95
REMARK   40  A    between atoms: _95  and  _96
REMARK   41  A    between atoms: _101  and  _103
REMARK   42  A    between atoms: _103  and  _104
REMARK   43  A    between atoms: _103  and  _106
REMARK   44  A    between atoms: _109  and  _111
REMARK   45  A    between atoms: _111  and  _112
REMARK   46  A    between atoms: _111  and  _114
REMARK   47  A    between atoms: _117  and  _119
REMARK   48  A    between atoms: _119  and  _120
REMARK   49  A    between atoms: _119  and  _122
REMARK   50  A    between atoms: _122  and  _123
REMARK   51  A    between atoms: _126  and  _128
REMARK   52  A    between atoms: _128  and  _129
REMARK   53  A    between atoms: _128  and  _131
REMARK   54  A    between atoms: _131  and  _132
REMARK   55  A    between atoms: _137  and  _138
REMARK   56  A    between atoms: _140  and  _142
REMARK   57  A    between atoms: _142  and  _143
REMARK   58  A    between atoms: _142  and  _145
REMARK   59  A    between atoms: _145  and  _146
REMARK   60  A    between atoms: _146  and  _147
REMARK   61  A    between atoms: _152  and  _154
REMARK   62  A    between atoms: _154  and  _155
REMARK   63  A    between atoms: _154  and  _157
REMARK   64  A    between atoms: _157  and  _158
REMARK   65  A    between atoms: _161  and  _163
REMARK   66  A    between atoms: _163  and  _164
REMARK   67  A    between atoms: _163  and  _166
REMARK   68  A    between atoms: _166  and  _167
REMARK   69  A    between atoms: _167  and  _168
REMARK   70  A    between atoms: _171  and  _173
REMARK   71  A    between atoms: _173  and  _174
REMARK   72  A    between atoms: _177  and  _179
REMARK   73  A    between atoms: _179  and  _180
REMARK   74  A    between atoms: _179  and  _182
REMARK   75  A    between atoms: _182  and  _183
REMARK   76  A    between atoms: _183  and  _184
REMARK   77  A    between atoms: _189  and  _191
REMARK   78  A    between atoms: _191  and  _192
REMARK   79  A    between atoms: _191  and  _194
REMARK   80  A    between atoms: _194  and  _195
REMARK   81  A    between atoms: _195  and  _196
REMARK   82  A    between atoms: _196  and  _197
REMARK   83  A    between atoms: _206  and  _208
REMARK   84  A    between atoms: _208  and  _209
REMARK   85  A    between atoms: _212  and  _214
REMARK   86  A    between atoms: _214  and  _215
REMARK   87  A    between atoms: _214  and  _217
REMARK   88  A    between atoms: _217  and  _218
REMARK   89  A    between atoms: _223  and  _224
REMARK   90  A    between atoms: _226  and  _228
REMARK   91  A    between atoms: _228  and  _229
REMARK   92  A    between atoms: _228  and  _231
REMARK   93  A    between atoms: _231  and  _232
REMARK   94  A    between atoms: _235  and  _237
REMARK   95  A    between atoms: _237  and  _238
REMARK   96  A    between atoms: _237  and  _240
REMARK   97  A    between atoms: _240  and  _241
REMARK   98  A    between atoms: _241  and  _242
REMARK   99  A    between atoms: _245  and  _247
REMARK  100  A    between atoms: _247  and  _248
REMARK  101  A    between atoms: _247  and  _250
REMARK  102  A    between atoms: _250  and  _251
REMARK  103  A    between atoms: _254  and  _256
REMARK  104  A    between atoms: _256  and  _257
REMARK  105  A    between atoms: _256  and  _259
REMARK  106  A    between atoms: _259  and  _260
REMARK  107  A    between atoms: _260  and  _261
REMARK  108  A    between atoms: _261  and  _262
REMARK  109  A    between atoms: _271  and  _273
REMARK  110  A    between atoms: _273  and  _274
REMARK  111  A    between atoms: _273  and  _276
REMARK  112  A    between atoms: _276  and  _277
REMARK  113  A    between atoms: _282  and  _284
REMARK  114  A    between atoms: _284  and  _285
REMARK  115  A    between atoms: _284  and  _287
REMARK  116  A    between atoms: _287  and  _288
REMARK  117  A    between atoms: _288  and  _289
REMARK  118  A    between atoms: _289  and  _290
REMARK  119  A    between atoms: _290  and  _291
REMARK  120  A    between atoms: _295  and  _297
REMARK  121  A    between atoms: _297  and  _298
REMARK  122  A    between atoms: _297  and  _300
REMARK  123  A    between atoms: _300  and  _301
REMARK  124  A    between atoms: _301  and  _302
REMARK  125  A    between atoms: _307  and  _309
REMARK  126  A    between atoms: _309  and  _310
REMARK  127  A    between atoms: _309  and  _312
REMARK  128  A    between atoms: _312  and  _313
REMARK  129  A    between atoms: _313  and  _314
REMARK  130  A    between atoms: _319  and  _321
REMARK  131  A    between atoms: _321  and  _322
REMARK  132  A    between atoms: _321  and  _324
REMARK  133  A    between atoms: _324  and  _325
REMARK  134  A    between atoms: _325  and  _326
REMARK  135  A    between atoms: _326  and  _327
REMARK  136  A    between atoms: _336  and  _338
REMARK  137  A    between atoms: _338  and  _339
REMARK  138  A    between atoms: _338  and  _341
REMARK  139  A    between atoms: _341  and  _342
REMARK  140  A    between atoms: _342  and  _343
REMARK  141  A    between atoms: _345  and  _347
REMARK  142  A    between atoms: _347  and  _348
REMARK  143  A    between atoms: _347  and  _350
REMARK  144  A    between atoms: _350  and  _351
REMARK  145  A    between atoms: _361  and  _363
REMARK  146  A    between atoms: _363  and  _364
REMARK  147  A    between atoms: _363  and  _366
REMARK  148  A    between atoms: _366  and  _367
REMARK  149  A    between atoms: _370  and  _372
REMARK  150  A    between atoms: _372  and  _373
REMARK  151  A    between atoms: _372  and  _375
REMARK  152  A    between atoms: _375  and  _376
REMARK  153  A    between atoms: _379  and  _381
REMARK  154  A    between atoms: _381  and  _382
REMARK  155  A    between atoms: _381  and  _384
REMARK  156  A    between atoms: _384  and  _385
REMARK  157  A    between atoms: _388  and  _390
REMARK  158  A    between atoms: _390  and  _391
REMARK  159  A    between atoms: _390  and  _393
REMARK  160  A    between atoms: _393  and  _394
REMARK  161  A    between atoms: _399  and  _400
REMARK  162  A    between atoms: _402  and  _404
REMARK  163  A    between atoms: _404  and  _405
REMARK  164  A    between atoms: _404  and  _407
REMARK  165  A    between atoms: _407  and  _408
REMARK  166  A    between atoms: _408  and  _409
REMARK  167  A    between atoms: _409  and  _410
REMARK  168  A    between atoms: _419  and  _421
REMARK  169  A    between atoms: _421  and  _422
REMARK  170  A    between atoms: _421  and  _424
REMARK  171  A    between atoms: _424  and  _425
REMARK  172  A    between atoms: _431  and  _433
REMARK  173  A    between atoms: _433  and  _434
REMARK  174  A    between atoms: _433  and  _436
REMARK  175  A    between atoms: _436  and  _437
REMARK  176  A    between atoms: _440  and  _442
REMARK  177  A    between atoms: _442  and  _443
REMARK  178  A    between atoms: _442  and  _445
REMARK  179  A    between atoms: _445  and  _446
REMARK  180  A    between atoms: _446  and  _447
REMARK  181  A    between atoms: _447  and  _448
REMARK  182  A    between atoms: _457  and  _459
REMARK  183  A    between atoms: _459  and  _460
REMARK  184  A    between atoms: _459  and  _462
REMARK  185  A    between atoms: _462  and  _463
REMARK  186  A    between atoms: _466  and  _468
REMARK  187  A    between atoms: _468  and  _469
REMARK  188  A    between atoms: _468  and  _471
REMARK  189  A    between atoms: _471  and  _472
REMARK  190  A    between atoms: _475  and  _477
REMARK  191  A    between atoms: _477  and  _478
REMARK  192  A    between atoms: _477  and  _480
REMARK  193  A    between atoms: _480  and  _481
REMARK  194  A    between atoms: _484  and  _486
REMARK  195  A    between atoms: _486  and  _487
REMARK  196  A    between atoms: _486  and  _489
REMARK  197  A    between atoms: _489  and  _490
REMARK  198  A    between atoms: _500  and  _502
REMARK  199  A    between atoms: _502  and  _503
REMARK  200  A    between atoms: _502  and  _505
REMARK  201  A    between atoms: _508  and  _510
REMARK  202  A    between atoms: _510  and  _511
REMARK  203  A    between atoms: _510  and  _513
REMARK  204  A    between atoms: _513  and  _514
REMARK  205  A    between atoms: _516  and  _518
REMARK  206  A    between atoms: _518  and  _519
REMARK  207  A    between atoms: _518  and  _521
REMARK  208  A    between atoms: _524  and  _526
REMARK  209  A    between atoms: _526  and  _527
REMARK  210  A    between atoms: _526  and  _529
REMARK  211  A    between atoms: _529  and  _530
REMARK  212  A    between atoms: _530  and  _531
REMARK  213  A    between atoms: _531  and  _532
REMARK  214  A    between atoms: _541  and  _543
REMARK  215  A    between atoms: _543  and  _544
REMARK  216  A    between atoms: _543  and  _546
REMARK  217  A    between atoms: _546  and  _547
REMARK  218  A    between atoms: _547  and  _548
REMARK  219  A    between atoms: _551  and  _553
REMARK  220  A    between atoms: _553  and  _554
REMARK  221  A    between atoms: _553  and  _556
REMARK  222  A    between atoms: _556  and  _557
REMARK  223  A    between atoms: _557  and  _558
REMARK  224  A    between atoms: _563  and  _565
REMARK  225  A    between atoms: _565  and  _566
REMARK  226  A    between atoms: _565  and  _568
REMARK  227  A    between atoms: _568  and  _569
REMARK  228  A    between atoms: _572  and  _574
REMARK  229  A    between atoms: _574  and  _575
REMARK  230  A    between atoms: _574  and  _577
REMARK  231  A    between atoms: _580  and  _582
REMARK  232  A    between atoms: _582  and  _583
REMARK  233  A    between atoms: _582  and  _585
REMARK  234  A    between atoms: _585  and  _586
REMARK  235  A    between atoms: _588  and  _590
REMARK  236  A    between atoms: _590  and  _591
REMARK  237  A    between atoms: _590  and  _593
REMARK  238  A    between atoms: _596  and  _598
REMARK  239  A    between atoms: _598  and  _599
REMARK  240  A    between atoms: _598  and  _601
REMARK  241  A    between atoms: _601  and  _602
REMARK  242  A    between atoms: _602  and  _603
REMARK  243  A    between atoms: _603  and  _604
REMARK  244  A    between atoms: _613  and  _615
REMARK  245  A    between atoms: _615  and  _616
REMARK  246  A    between atoms: _615  and  _618
REMARK  247  A    between atoms: _618  and  _619
REMARK  248  A    between atoms: _629  and  _631
REMARK  249  A    between atoms: _631  and  _632
REMARK  250  A    between atoms: _631  and  _634
REMARK  251  A    between atoms: _634  and  _635
REMARK  252  A    between atoms: _640  and  _641
REMARK  253  A    between atoms: _643  and  _645
REMARK  254  A    between atoms: _645  and  _646
REMARK  255  A    between atoms: _645  and  _648
REMARK  256  A    between atoms: _648  and  _649
REMARK  257  A    between atoms: _649  and  _650
REMARK  258  A    between atoms: _650  and  _651
REMARK  259  A    between atoms: _661  and  _662
REMARK  260  A    between atoms: _667  and  _669
REMARK  261  A    between atoms: _669  and  _670
REMARK  262  A    between atoms: _672  and  _674
REMARK  263  A    between atoms: _674  and  _675
REMARK  264  A    between atoms: _678  and  _679
REMARK  265  A    between atoms: _684  and  _686
REMARK  266  A    between atoms: _686  and  _687
REMARK  267  A    between atoms: _686  and  _689
REMARK  268  A    between atoms: _689  and  _690
REMARK  269  A    between atoms: _693  and  _695
REMARK  270  A    between atoms: _695  and  _696
REMARK  271  A    between atoms: _695  and  _698
REMARK  272  A    between atoms: _698  and  _699
REMARK  273  A    between atoms: _702  and  _704
REMARK  274  A    between atoms: _704  and  _705
REMARK  275  A    between atoms: _708  and  _710
REMARK  276  A    between atoms: _710  and  _711
REMARK  277  A    between atoms: _710  and  _713
REMARK  278  A    between atoms: _713  and  _714
REMARK  279  A    between atoms: _714  and  _715
REMARK  280  A    between atoms: _720  and  _722
REMARK  281  A    between atoms: _722  and  _723
REMARK  282  A    between atoms: _722  and  _725
REMARK                            x       y       z     vdW  Elec       q    Type
REMARK                         _______ _______ _______ _____ _____    ______ ____
ROOT
ATOM      1  CA  TRP A   2      -0.805  32.543  19.290  0.00  0.00    +0.141 C 
ENDROOT
BRANCH   1   4
ATOM      2  C   MET A   1       1.499  32.830  20.061  0.00  0.00    +0.238 C 
ATOM      3  O   MET A   1       1.635  31.570  20.232  0.00  0.00    -0.274 OA
ATOM      4  N   TRP A   2       0.376  33.349  19.592  0.00  0.00    -0.298 N 
ATOM      5  H   TRP A   2       0.332  34.376  19.431  0.00  0.00    +0.150 HD
BRANCH   2   6
ATOM      6  CA  MET A   1       2.632  33.796  20.368  0.00  0.00    +0.146 C 
BRANCH   6   7
ATOM      7  N   MET A   1       2.832  34.740  19.253  0.00  0.00    -0.238 NA
ATOM      8  H   MET A   1       2.743  35.762  19.422  0.00  0.00    +0.142 HD
ENDBRANCH   6   7
BRANCH   6   9
ATOM      9  CB  MET A   1       2.350  34.603  21.645  0.00  0.00    +0.038 C 
BRANCH   9  10
ATOM     10  CG  MET A   1       2.031  33.739  22.869  0.00  0.00    +0.060 C 
BRANCH  10  11
ATOM     11  SD  MET A   1       1.281  34.748  24.207  0.00  0.00    -0.139 S 
ATOM     12  CE  MET A   1      -0.208  35.149  23.534  0.00  0.00    +0.069 C 
ENDBRANCH  10  11
ENDBRANCH   9  10
ENDBRANCH   6   9
ENDBRANCH   2   6
ENDBRANCH   1   4
BRANCH   1  13
ATOM     13  C   TRP A   2      -0.519  31.633  18.074  0.00  0.00    +0.227 C 
ATOM     14  O   TRP A   2      -0.918  30.458  18.091  0.00  0.00    -0.286 OA
ENDBRANCH   1  13
BRANCH   1  15
ATOM     15  CB  TRP A   2      -2.017  33.431  18.995  0.00  0.00    +0.056 C 
BRANCH  15  16
ATOM     16  CG  TRP A   2      -2.689  33.889  20.257  0.00  0.00    -0.002 A 
ATOM     17  CD2 TRP A   2      -3.385  33.081  21.187  0.00  0.00    +0.013 A 
ATOM     18  CE2 TRP A   2      -3.889  33.909  22.219  0.00  0.00    +0.056 A 
ATOM     19  CZ2 TRP A   2      -4.632  33.417  23.297  0.00  0.00    +0.017 A 
ATOM     20  CH2 TRP A   2      -4.857  32.037  23.352  0.00  0.00    +0.001 A 
ATOM     21  CZ3 TRP A   2      -4.396  31.189  22.311  0.00  0.00    +0.000 A 
ATOM     22  NE1 TRP A   2      -3.488  35.201  21.924  0.00  0.00    -0.352 N 
ATOM     23  HE1 TRP A   2      -3.684  36.044  22.501  0.00  0.00    +0.166 HD
ATOM     24  CE3 TRP A   2      -3.645  31.664  21.261  0.00  0.00    +0.001 A 
ATOM     25  CD1 TRP A   2      -2.779  35.183  20.726  0.00  0.00    +0.068 A 
ENDBRANCH  15  16
ENDBRANCH   1  15
TORSDOF 9
REMARK  Name = ../refined-set-2016/4w97/4w97_pocket.pdb
REMARK  282 active torsions:
REMARK  status: ('A' for Active; 'I' for Inactive)
REMARK    1  A    between atoms: _1  and  _3
REMARK    2  A    between atoms: _3  and  _4
REMARK    3  A    between atoms: _3  and  _6
REMARK    4  A    between atoms: _6  and  _7
REMARK    5  A    between atoms: _10  and  _12
REMARK    6  A    between atoms: _12  and  _13
REMARK    7  A    between atoms: _12  and  _15
REMARK    8  A    between atoms: _15  and  _16
REMARK    9  A    between atoms: _22  and  _24
REMARK   10  A    between atoms: _24  and  _25
REMARK   11  A    between atoms: _24  and  _27
REMARK   12  A    between atoms: _27  and  _28
REMARK   13  A    between atoms: _31  and  _33
REMARK   14  A    between atoms: _33  and  _34
REMARK   15  A    between atoms: _33  and  _36
REMARK   16  A    between atoms: _36  and  _37
REMARK   17  A    between atoms: _40  and  _42
REMARK   18  A    between atoms: _42  and  _43
REMARK   19  A    between atoms: _42  and  _45
REMARK   20  A    between atoms: _45  and  _46
REMARK   21  A    between atoms: _52  and  _54
REMARK   22  A    between atoms: _54  and  _55
REMARK   23  A    between atoms: _54  and  _57
REMARK   24  A    between atoms: _57  and  _58
REMARK   25  A    between atoms: _63  and  _64
REMARK   26  A    between atoms: _66  and  _68
REMARK   27  A    between atoms: _68  and  _69
REMARK   28  A    between atoms: _68  and  _71
REMARK   29  A    between atoms: _71  and  _72
REMARK   30  A    between atoms: _74  and  _76
REMARK   31  A    between atoms: _76  and  _77
REMARK   32  A    between atoms: _80  and  _82
REMARK   33  A    between atoms: _82  and  _83
REMARK   34  A    between atoms: _82  and  _85
REMARK   35  A    between atoms: _85  and  _86
REMARK   36  A    between atoms: _89  and  _91
REMARK   37  A    between atoms: _91  and  _92
REMARK   38  A    between atoms: _91  and  _94
REMARK   39  A    between atoms: _94  and  _95
REMARK   40  A    between atoms: _95  and  _96
REMARK   41  A    between atoms: _101  and  _103
REMARK   42  A    between atoms: _103  and  _104
REMARK   43  A    between atoms: _103  and  _106
REMARK   44  A    between atoms: _109  and  _111
REMARK   45  A    between atoms: _111  and  _112
REMARK   46  A    between atoms: _111  and  _114
REMARK   47  A    between atoms: _117  and  _119
REMARK   48  A    between atoms: _119  and  _120
REMARK   49  A    between atoms: _119  and  _122
REMARK   50  A    between atoms: _122  and  _123
REMARK   51  A    between atoms: _126  and  _128
REMARK   52  A    between atoms: _128  and  _129
REMARK   53  A    between atoms: _128  and  _131
REMARK   54  A    between atoms: _131  and  _132
REMARK   55  A    between atoms: _137  and  _138
REMARK   56  A    between atoms: _140  and  _142
REMARK   57  A    between atoms: _142  and  _143
REMARK   58  A    between atoms: _142  and  _145
REMARK   59  A    between atoms: _145  and  _146
REMARK   60  A    between atoms: _146  and  _147
REMARK   61  A    between atoms: _152  and  _154
REMARK   62  A    between atoms: _154  and  _155
REMARK   63  A    between atoms: _154  and  _157
REMARK   64  A    between atoms: _157  and  _158
REMARK   65  A    between atoms: _161  and  _163
REMARK   66  A    between atoms: _163  and  _164
REMARK   67  A    between atoms: _163  and  _166
REMARK   68  A    between atoms: _166  and  _167
REMARK   69  A    between atoms: _167  and  _168
REMARK   70  A    between atoms: _171  and  _173
REMARK   71  A    between atoms: _173  and  _174
REMARK   72  A    between atoms: _177  and  _179
REMARK   73  A    between atoms: _179  and  _180
REMARK   74  A    between atoms: _179  and  _182
REMARK   75  A    between atoms: _182  and  _183
REMARK   76  A    between atoms: _183  and  _184
REMARK   77  A    between atoms: _189  and  _191
REMARK   78  A    between atoms: _191  and  _192
REMARK   79  A    between atoms: _191  and  _194
REMARK   80  A    between atoms: _194  and  _195
REMARK   81  A    between atoms: _195  and  _196
REMARK   82  A    between atoms: _196  and  _197
REMARK   83  A    between atoms: _206  and  _208
REMARK   84  A    between atoms: _208  and  _209
REMARK   85  A    between atoms: _212  and  _214
REMARK   86  A    between atoms: _214  and  _215
REMARK   87  A    between atoms: _214  and  _217
REMARK   88  A    between atoms: _217  and  _218
REMARK   89  A    between atoms: _223  and  _224
REMARK   90  A    between atoms: _226  and  _228
REMARK   91  A    between atoms: _228  and  _229
REMARK   92  A    between atoms: _228  and  _231
REMARK   93  A    between atoms: _231  and  _232
REMARK   94  A    between atoms: _235  and  _237
REMARK   95  A    between atoms: _237  and  _238
REMARK   96  A    between atoms: _237  and  _240
REMARK   97  A    between atoms: _240  and  _241
REMARK   98  A    between atoms: _241  and  _242
REMARK   99  A    between atoms: _245  and  _247
REMARK  100  A    between atoms: _247  and  _248
REMARK  101  A    between atoms: _247  and  _250
REMARK  102  A    between atoms: _250  and  _251
REMARK  103  A    between atoms: _254  and  _256
REMARK  104  A    between atoms: _256  and  _257
REMARK  105  A    between atoms: _256  and  _259
REMARK  106  A    between atoms: _259  and  _260
REMARK  107  A    between atoms: _260  and  _261
REMARK  108  A    between atoms: _261  and  _262
REMARK  109  A    between atoms: _271  and  _273
REMARK  110  A    between atoms: _273  and  _274
REMARK  111  A    between atoms: _273  and  _276
REMARK  112  A    between atoms: _276  and  _277
REMARK  113  A    between atoms: _282  and  _284
REMARK  114  A    between atoms: _284  and  _285
REMARK  115  A    between atoms: _284  and  _287
REMARK  116  A    between atoms: _287  and  _288
REMARK  117  A    between atoms: _288  and  _289
REMARK  118  A    between atoms: _289  and  _290
REMARK  119  A    between atoms: _290  and  _291
REMARK  120  A    between atoms: _295  and  _297
REMARK  121  A    between atoms: _297  and  _298
REMARK  122  A    between atoms: _297  and  _300
REMARK  123  A    between atoms: _300  and  _301
REMARK  124  A    between atoms: _301  and  _302
REMARK  125  A    between atoms: _307  and  _309
REMARK  126  A    between atoms: _309  and  _310
REMARK  127  A    between atoms: _309  and  _312
REMARK  128  A    between atoms: _312  and  _313
REMARK  129  A    between atoms: _313  and  _314
REMARK  130  A    between atoms: _319  and  _321
REMARK  131  A    between atoms: _321  and  _322
REMARK  132  A    between atoms: _321  and  _324
REMARK  133  A    between atoms: _324  and  _325
REMARK  134  A    between atoms: _325  and  _326
REMARK  135  A    between atoms: _326  and  _327
REMARK  136  A    between atoms: _336  and  _338
REMARK  137  A    between atoms: _338  and  _339
REMARK  138  A    between atoms: _338  and  _341
REMARK  139  A    between atoms: _341  and  _342
REMARK  140  A    between atoms: _342  and  _343
REMARK  141  A    between atoms: _345  and  _347
REMARK  142  A    between atoms: _347  and  _348
REMARK  143  A    between atoms: _347  and  _350
REMARK  144  A    between atoms: _350  and  _351
REMARK  145  A    between atoms: _361  and  _363
REMARK  146  A    between atoms: _363  and  _364
REMARK  147  A    between atoms: _363  and  _366
REMARK  148  A    between atoms: _366  and  _367
REMARK  149  A    between atoms: _370  and  _372
REMARK  150  A    between atoms: _372  and  _373
REMARK  151  A    between atoms: _372  and  _375
REMARK  152  A    between atoms: _375  and  _376
REMARK  153  A    between atoms: _379  and  _381
REMARK  154  A    between atoms: _381  and  _382
REMARK  155  A    between atoms: _381  and  _384
REMARK  156  A    between atoms: _384  and  _385
REMARK  157  A    between atoms: _388  and  _390
REMARK  158  A    between atoms: _390  and  _391
REMARK  159  A    between atoms: _390  and  _393
REMARK  160  A    between atoms: _393  and  _394
REMARK  161  A    between atoms: _399  and  _400
REMARK  162  A    between atoms: _402  and  _404
REMARK  163  A    between atoms: _404  and  _405
REMARK  164  A    between atoms: _404  and  _407
REMARK  165  A    between atoms: _407  and  _408
REMARK  166  A    between atoms: _408  and  _409
REMARK  167  A    between atoms: _409  and  _410
REMARK  168  A    between atoms: _419  and  _421
REMARK  169  A    between atoms: _421  and  _422
REMARK  170  A    between atoms: _421  and  _424
REMARK  171  A    between atoms: _424  and  _425
REMARK  172  A    between atoms: _431  and  _433
REMARK  173  A    between atoms: _433  and  _434
REMARK  174  A    between atoms: _433  and  _436
REMARK  175  A    between atoms: _436  and  _437
REMARK  176  A    between atoms: _440  and  _442
REMARK  177  A    between atoms: _442  and  _443
REMARK  178  A    between atoms: _442  and  _445
REMARK  179  A    between atoms: _445  and  _446
REMARK  180  A    between atoms: _446  and  _447
REMARK  181  A    between atoms: _447  and  _448
REMARK  182  A    between atoms: _457  and  _459
REMARK  183  A    between atoms: _459  and  _460
REMARK  184  A    between atoms: _459  and  _462
REMARK  185  A    between atoms: _462  and  _463
REMARK  186  A    between atoms: _466  and  _468
REMARK  187  A    between atoms: _468  and  _469
REMARK  188  A    between atoms: _468  and  _471
REMARK  189  A    between atoms: _471  and  _472
REMARK  190  A    between atoms: _475  and  _477
REMARK  191  A    between atoms: _477  and  _478
REMARK  192  A    between atoms: _477  and  _480
REMARK  193  A    between atoms: _480  and  _481
REMARK  194  A    between atoms: _484  and  _486
REMARK  195  A    between atoms: _486  and  _487
REMARK  196  A    between atoms: _486  and  _489
REMARK  197  A    between atoms: _489  and  _490
REMARK  198  A    between atoms: _500  and  _502
REMARK  199  A    between atoms: _502  and  _503
REMARK  200  A    between atoms: _502  and  _505
REMARK  201  A    between atoms: _508  and  _510
REMARK  202  A    between atoms: _510  and  _511
REMARK  203  A    between atoms: _510  and  _513
REMARK  204  A    between atoms: _513  and  _514
REMARK  205  A    between atoms: _516  and  _518
REMARK  206  A    between atoms: _518  and  _519
REMARK  207  A    between atoms: _518  and  _521
REMARK  208  A    between atoms: _524  and  _526
REMARK  209  A    between atoms: _526  and  _527
REMARK  210  A    between atoms: _526  and  _529
REMARK  211  A    between atoms: _529  and  _530
REMARK  212  A    between atoms: _530  and  _531
REMARK  213  A    between atoms: _531  and  _532
REMARK  214  A    between atoms: _541  and  _543
REMARK  215  A    between atoms: _543  and  _544
REMARK  216  A    between atoms: _543  and  _546
REMARK  217  A    between atoms: _546  and  _547
REMARK  218  A    between atoms: _547  and  _548
REMARK  219  A    between atoms: _551  and  _553
REMARK  220  A    between atoms: _553  and  _554
REMARK  221  A    between atoms: _553  and  _556
REMARK  222  A    between atoms: _556  and  _557
REMARK  223  A    between atoms: _557  and  _558
REMARK  224  A    between atoms: _563  and  _565
REMARK  225  A    between atoms: _565  and  _566
REMARK  226  A    between atoms: _565  and  _568
REMARK  227  A    between atoms: _568  and  _569
REMARK  228  A    between atoms: _572  and  _574
REMARK  229  A    between atoms: _574  and  _575
REMARK  230  A    between atoms: _574  and  _577
REMARK  231  A    between atoms: _580  and  _582
REMARK  232  A    between atoms: _582  and  _583
REMARK  233  A    between atoms: _582  and  _585
REMARK  234  A    between atoms: _585  and  _586
REMARK  235  A    between atoms: _588  and  _590
REMARK  236  A    between atoms: _590  and  _591
REMARK  237  A    between atoms: _590  and  _593
REMARK  238  A    between atoms: _596  and  _598
REMARK  239  A    between atoms: _598  and  _599
REMARK  240  A    between atoms: _598  and  _601
REMARK  241  A    between atoms: _601  and  _602
REMARK  242  A    between atoms: _602  and  _603
REMARK  243  A    between atoms: _603  and  _604
REMARK  244  A    between atoms: _613  and  _615
REMARK  245  A    between atoms: _615  and  _616
REMARK  246  A    between atoms: _615  and  _618
REMARK  247  A    between atoms: _618  and  _619
REMARK  248  A    between atoms: _629  and  _631
REMARK  249  A    between atoms: _631  and  _632
REMARK  250  A    between atoms: _631  and  _634
REMARK  251  A    between atoms: _634  and  _635
REMARK  252  A    between atoms: _640  and  _641
REMARK  253  A    between atoms: _643  and  _645
REMARK  254  A    between atoms: _645  and  _646
REMARK  255  A    between atoms: _645  and  _648
REMARK  256  A    between atoms: _648  and  _649
REMARK  257  A    between atoms: _649  and  _650
REMARK  258  A    between atoms: _650  and  _651
REMARK  259  A    between atoms: _661  and  _662
REMARK  260  A    between atoms: _667  and  _669
REMARK  261  A    between atoms: _669  and  _670
REMARK  262  A    between atoms: _672  and  _674
REMARK  263  A    between atoms: _674  and  _675
REMARK  264  A    between atoms: _678  and  _679
REMARK  265  A    between atoms: _684  and  _686
REMARK  266  A    between atoms: _686  and  _687
REMARK  267  A    between atoms: _686  and  _689
REMARK  268  A    between atoms: _689  and  _690
REMARK  269  A    between atoms: _693  and  _695
REMARK  270  A    between atoms: _695  and  _696
REMARK  271  A    between atoms: _695  and  _698
REMARK  272  A    between atoms: _698  and  _699
REMARK  273  A    between atoms: _702  and  _704
REMARK  274  A    between atoms: _704  and  _705
REMARK  275  A    between atoms: _708  and  _710
REMARK  276  A    between atoms: _710  and  _711
REMARK  277  A    between atoms: _710  and  _713
REMARK  278  A    between atoms: _713  and  _714
REMARK  279  A    between atoms: _714  and  _715
REMARK  280  A    between atoms: _720  and  _722
REMARK  281  A    between atoms: _722  and  _723
REMARK  282  A    between atoms: _722  and  _725
REMARK                            x       y       z     vdW  Elec       q    Type
REMARK                         _______ _______ _______ _____ _____    ______ ____
ROOT
ATOM      1  CA  ASP A   1      -6.121  28.024   9.176  0.00  0.00    +0.144 C 
ENDROOT
BRANCH   1   2
ATOM      2  N   ASP A   1      -6.874  26.877   9.690  0.00  0.00    -0.239 NA
ATOM      3  H   ASP A   1      -7.907  26.948   9.782  0.00  0.00    +0.142 HD
ENDBRANCH   1   2
BRANCH   1   4
ATOM      4  C   ASP A   1      -5.690  28.797  10.405  0.00  0.00    +0.225 C 
ATOM      5  O   ASP A   1      -6.522  29.359  11.107  0.00  0.00    -0.287 OA
ENDBRANCH   1   4
BRANCH   1   6
ATOM      6  CB  ASP A   1      -6.936  28.893   8.235  0.00  0.00    +0.139 C 
BRANCH   6   7
ATOM      7  CG  ASP A   1      -6.098  30.033   7.667  0.00  0.00    +0.367 C 
ATOM      8  OD2 ASP A   1      -5.850  30.990   8.403  0.00  0.00    -0.246 OA
ATOM      9  OD1 ASP A   1      -5.635  29.931   6.512  0.00  0.00    -0.246 OA
ENDBRANCH   6   7
ENDBRANCH   1   6
TORSDOF 4
REMARK  Name = ../refined-set-2016/4w97/4w97_pocket.pdb
REMARK  282 active torsions:
REMARK  status: ('A' for Active; 'I' for Inactive)
REMARK    1  A    between atoms: _1  and  _3
REMARK    2  A    between atoms: _3  and  _4
REMARK    3  A    between atoms: _3  and  _6
REMARK    4  A    between atoms: _6  and  _7
REMARK    5  A    between atoms: _10  and  _12
REMARK    6  A    between atoms: _12  and  _13
REMARK    7  A    between atoms: _12  and  _15
REMARK    8  A    between atoms: _15  and  _16
REMARK    9  A    between atoms: _22  and  _24
REMARK   10  A    between atoms: _24  and  _25
REMARK   11  A    between atoms: _24  and  _27
REMARK   12  A    between atoms: _27  and  _28
REMARK   13  A    between atoms: _31  and  _33
REMARK   14  A    between atoms: _33  and  _34
REMARK   15  A    between atoms: _33  and  _36
REMARK   16  A    between atoms: _36  and  _37
REMARK   17  A    between atoms: _40  and  _42
REMARK   18  A    between atoms: _42  and  _43
REMARK   19  A    between atoms: _42  and  _45
REMARK   20  A    between atoms: _45  and  _46
REMARK   21  A    between atoms: _52  and  _54
REMARK   22  A    between atoms: _54  and  _55
REMARK   23  A    between atoms: _54  and  _57
REMARK   24  A    between atoms: _57  and  _58
REMARK   25  A    between atoms: _63  and  _64
REMARK   26  A    between atoms: _66  and  _68
REMARK   27  A    between atoms: _68  and  _69
REMARK   28  A    between atoms: _68  and  _71
REMARK   29  A    between atoms: _71  and  _72
REMARK   30  A    between atoms: _74  and  _76
REMARK   31  A    between atoms: _76  and  _77
REMARK   32  A    between atoms: _80  and  _82
REMARK   33  A    between atoms: _82  and  _83
REMARK   34  A    between atoms: _82  and  _85
REMARK   35  A    between atoms: _85  and  _86
REMARK   36  A    between atoms: _89  and  _91
REMARK   37  A    between atoms: _91  and  _92
REMARK   38  A    between atoms: _91  and  _94
REMARK   39  A    between atoms: _94  and  _95
REMARK   40  A    between atoms: _95  and  _96
REMARK   41  A    between atoms: _101  and  _103
REMARK   42  A    between atoms: _103  and  _104
REMARK   43  A    between atoms: _103  and  _106
REMARK   44  A    between atoms: _109  and  _111
REMARK   45  A    between atoms: _111  and  _112
REMARK   46  A    between atoms: _111  and  _114
REMARK   47  A    between atoms: _117  and  _119
REMARK   48  A    between atoms: _119  and  _120
REMARK   49  A    between atoms: _119  and  _122
REMARK   50  A    between atoms: _122  and  _123
REMARK   51  A    between atoms: _126  and  _128
REMARK   52  A    between atoms: _128  and  _129
REMARK   53  A    between atoms: _128  and  _131
REMARK   54  A    between atoms: _131  and  _132
REMARK   55  A    between atoms: _137  and  _138
REMARK   56  A    between atoms: _140  and  _142
REMARK   57  A    between atoms: _142  and  _143
REMARK   58  A    between atoms: _142  and  _145
REMARK   59  A    between atoms: _145  and  _146
REMARK   60  A    between atoms: _146  and  _147
REMARK   61  A    between atoms: _152  and  _154
REMARK   62  A    between atoms: _154  and  _155
REMARK   63  A    between atoms: _154  and  _157
REMARK   64  A    between atoms: _157  and  _158
REMARK   65  A    between atoms: _161  and  _163
REMARK   66  A    between atoms: _163  and  _164
REMARK   67  A    between atoms: _163  and  _166
REMARK   68  A    between atoms: _166  and  _167
REMARK   69  A    between atoms: _167  and  _168
REMARK   70  A    between atoms: _171  and  _173
REMARK   71  A    between atoms: _173  and  _174
REMARK   72  A    between atoms: _177  and  _179
REMARK   73  A    between atoms: _179  and  _180
REMARK   74  A    between atoms: _179  and  _182
REMARK   75  A    between atoms: _182  and  _183
REMARK   76  A    between atoms: _183  and  _184
REMARK   77  A    between atoms: _189  and  _191
REMARK   78  A    between atoms: _191  and  _192
REMARK   79  A    between atoms: _191  and  _194
REMARK   80  A    between atoms: _194  and  _195
REMARK   81  A    between atoms: _195  and  _196
REMARK   82  A    between atoms: _196  and  _197
REMARK   83  A    between atoms: _206  and  _208
REMARK   84  A    between atoms: _208  and  _209
REMARK   85  A    between atoms: _212  and  _214
REMARK   86  A    between atoms: _214  and  _215
REMARK   87  A    between atoms: _214  and  _217
REMARK   88  A    between atoms: _217  and  _218
REMARK   89  A    between atoms: _223  and  _224
REMARK   90  A    between atoms: _226  and  _228
REMARK   91  A    between atoms: _228  and  _229
REMARK   92  A    between atoms: _228  and  _231
REMARK   93  A    between atoms: _231  and  _232
REMARK   94  A    between atoms: _235  and  _237
REMARK   95  A    between atoms: _237  and  _238
REMARK   96  A    between atoms: _237  and  _240
REMARK   97  A    between atoms: _240  and  _241
REMARK   98  A    between atoms: _241  and  _242
REMARK   99  A    between atoms: _245  and  _247
REMARK  100  A    between atoms: _247  and  _248
REMARK  101  A    between atoms: _247  and  _250
REMARK  102  A    between atoms: _250  and  _251
REMARK  103  A    between atoms: _254  and  _256
REMARK  104  A    between atoms: _256  and  _257
REMARK  105  A    between atoms: _256  and  _259
REMARK  106  A    between atoms: _259  and  _260
REMARK  107  A    between atoms: _260  and  _261
REMARK  108  A    between atoms: _261  and  _262
REMARK  109  A    between atoms: _271  and  _273
REMARK  110  A    between atoms: _273  and  _274
REMARK  111  A    between atoms: _273  and  _276
REMARK  112  A    between atoms: _276  and  _277
REMARK  113  A    between atoms: _282  and  _284
REMARK  114  A    between atoms: _284  and  _285
REMARK  115  A    between atoms: _284  and  _287
REMARK  116  A    between atoms: _287  and  _288
REMARK  117  A    between atoms: _288  and  _289
REMARK  118  A    between atoms: _289  and  _290
REMARK  119  A    between atoms: _290  and  _291
REMARK  120  A    between atoms: _295  and  _297
REMARK  121  A    between atoms: _297  and  _298
REMARK  122  A    between atoms: _297  and  _300
REMARK  123  A    between atoms: _300  and  _301
REMARK  124  A    between atoms: _301  and  _302
REMARK  125  A    between atoms: _307  and  _309
REMARK  126  A    between atoms: _309  and  _310
REMARK  127  A    between atoms: _309  and  _312
REMARK  128  A    between atoms: _312  and  _313
REMARK  129  A    between atoms: _313  and  _314
REMARK  130  A    between atoms: _319  and  _321
REMARK  131  A    between atoms: _321  and  _322
REMARK  132  A    between atoms: _321  and  _324
REMARK  133  A    between atoms: _324  and  _325
REMARK  134  A    between atoms: _325  and  _326
REMARK  135  A    between atoms: _326  and  _327
REMARK  136  A    between atoms: _336  and  _338
REMARK  137  A    between atoms: _338  and  _339
REMARK  138  A    between atoms: _338  and  _341
REMARK  139  A    between atoms: _341  and  _342
REMARK  140  A    between atoms: _342  and  _343
REMARK  141  A    between atoms: _345  and  _347
REMARK  142  A    between atoms: _347  and  _348
REMARK  143  A    between atoms: _347  and  _350
REMARK  144  A    between atoms: _350  and  _351
REMARK  145  A    between atoms: _361  and  _363
REMARK  146  A    between atoms: _363  and  _364
REMARK  147  A    between atoms: _363  and  _366
REMARK  148  A    between atoms: _366  and  _367
REMARK  149  A    between atoms: _370  and  _372
REMARK  150  A    between atoms: _372  and  _373
REMARK  151  A    between atoms: _372  and  _375
REMARK  152  A    between atoms: _375  and  _376
REMARK  153  A    between atoms: _379  and  _381
REMARK  154  A    between atoms: _381  and  _382
REMARK  155  A    between atoms: _381  and  _384
REMARK  156  A    between atoms: _384  and  _385
REMARK  157  A    between atoms: _388  and  _390
REMARK  158  A    between atoms: _390  and  _391
REMARK  159  A    between atoms: _390  and  _393
REMARK  160  A    between atoms: _393  and  _394
REMARK  161  A    between atoms: _399  and  _400
REMARK  162  A    between atoms: _402  and  _404
REMARK  163  A    between atoms: _404  and  _405
REMARK  164  A    between atoms: _404  and  _407
REMARK  165  A    between atoms: _407  and  _408
REMARK  166  A    between atoms: _408  and  _409
REMARK  167  A    between atoms: _409  and  _410
REMARK  168  A    between atoms: _419  and  _421
REMARK  169  A    between atoms: _421  and  _422
REMARK  170  A    between atoms: _421  and  _424
REMARK  171  A    between atoms: _424  and  _425
REMARK  172  A    between atoms: _431  and  _433
REMARK  173  A    between atoms: _433  and  _434
REMARK  174  A    between atoms: _433  and  _436
REMARK  175  A    between atoms: _436  and  _437
REMARK  176  A    between atoms: _440  and  _442
REMARK  177  A    between atoms: _442  and  _443
REMARK  178  A    between atoms: _442  and  _445
REMARK  179  A    between atoms: _445  and  _446
REMARK  180  A    between atoms: _446  and  _447
REMARK  181  A    between atoms: _447  and  _448
REMARK  182  A    between atoms: _457  and  _459
REMARK  183  A    between atoms: _459  and  _460
REMARK  184  A    between atoms: _459  and  _462
REMARK  185  A    between atoms: _462  and  _463
REMARK  186  A    between atoms: _466  and  _468
REMARK  187  A    between atoms: _468  and  _469
REMARK  188  A    between atoms: _468  and  _471
REMARK  189  A    between atoms: _471  and  _472
REMARK  190  A    between atoms: _475  and  _477
REMARK  191  A    between atoms: _477  and  _478
REMARK  192  A    between atoms: _477  and  _480
REMARK  193  A    between atoms: _480  and  _481
REMARK  194  A    between atoms: _484  and  _486
REMARK  195  A    between atoms: _486  and  _487
REMARK  196  A    between atoms: _486  and  _489
REMARK  197  A    between atoms: _489  and  _490
REMARK  198  A    between atoms: _500  and  _502
REMARK  199  A    between atoms: _502  and  _503
REMARK  200  A    between atoms: _502  and  _505
REMARK  201  A    between atoms: _508  and  _510
REMARK  202  A    between atoms: _510  and  _511
REMARK  203  A    between atoms: _510  and  _513
REMARK  204  A    between atoms: _513  and  _514
REMARK  205  A    between atoms: _516  and  _518
REMARK  206  A    between atoms: _518  and  _519
REMARK  207  A    between atoms: _518  and  _521
REMARK  208  A    between atoms: _524  and  _526
REMARK  209  A    between atoms: _526  and  _527
REMARK  210  A    between atoms: _526  and  _529
REMARK  211  A    between atoms: _529  and  _530
REMARK  212  A    between atoms: _530  and  _531
REMARK  213  A    between atoms: _531  and  _532
REMARK  214  A    between atoms: _541  and  _543
REMARK  215  A    between atoms: _543  and  _544
REMARK  216  A    between atoms: _543  and  _546
REMARK  217  A    between atoms: _546  and  _547
REMARK  218  A    between atoms: _547  and  _548
REMARK  219  A    between atoms: _551  and  _553
REMARK  220  A    between atoms: _553  and  _554
REMARK  221  A    between atoms: _553  and  _556
REMARK  222  A    between atoms: _556  and  _557
REMARK  223  A    between atoms: _557  and  _558
REMARK  224  A    between atoms: _563  and  _565
REMARK  225  A    between atoms: _565  and  _566
REMARK  226  A    between atoms: _565  and  _568
REMARK  227  A    between atoms: _568  and  _569
REMARK  228  A    between atoms: _572  and  _574
REMARK  229  A    between atoms: _574  and  _575
REMARK  230  A    between atoms: _574  and  _577
REMARK  231  A    between atoms: _580  and  _582
REMARK  232  A    between atoms: _582  and  _583
REMARK  233  A    between atoms: _582  and  _585
REMARK  234  A    between atoms: _585  and  _586
REMARK  235  A    between atoms: _588  and  _590
REMARK  236  A    between atoms: _590  and  _591
REMARK  237  A    between atoms: _590  and  _593
REMARK  238  A    between atoms: _596  and  _598
REMARK  239  A    between atoms: _598  and  _599
REMARK  240  A    between atoms: _598  and  _601
REMARK  241  A    between atoms: _601  and  _602
REMARK  242  A    between atoms: _602  and  _603
REMARK  243  A    between atoms: _603  and  _604
REMARK  244  A    between atoms: _613  and  _615
REMARK  245  A    between atoms: _615  and  _616
REMARK  246  A    between atoms: _615  and  _618
REMARK  247  A    between atoms: _618  and  _619
REMARK  248  A    between atoms: _629  and  _631
REMARK  249  A    between atoms: _631  and  _632
REMARK  250  A    between atoms: _631  and  _634
REMARK  251  A    between atoms: _634  and  _635
REMARK  252  A    between atoms: _640  and  _641
REMARK  253  A    between atoms: _643  and  _645
REMARK  254  A    between atoms: _645  and  _646
REMARK  255  A    between atoms: _645  and  _648
REMARK  256  A    between atoms: _648  and  _649
REMARK  257  A    between atoms: _649  and  _650
REMARK  258  A    between atoms: _650  and  _651
REMARK  259  A    between atoms: _661  and  _662
REMARK  260  A    between atoms: _667  and  _669
REMARK  261  A    between atoms: _669  and  _670
REMARK  262  A    between atoms: _672  and  _674
REMARK  263  A    between atoms: _674  and  _675
REMARK  264  A    between atoms: _678  and  _679
REMARK  265  A    between atoms: _684  and  _686
REMARK  266  A    between atoms: _686  and  _687
REMARK  267  A    between atoms: _686  and  _689
REMARK  268  A    between atoms: _689  and  _690
REMARK  269  A    between atoms: _693  and  _695
REMARK  270  A    between atoms: _695  and  _696
REMARK  271  A    between atoms: _695  and  _698
REMARK  272  A    between atoms: _698  and  _699
REMARK  273  A    between atoms: _702  and  _704
REMARK  274  A    between atoms: _704  and  _705
REMARK  275  A    between atoms: _708  and  _710
REMARK  276  A    between atoms: _710  and  _711
REMARK  277  A    between atoms: _710  and  _713
REMARK  278  A    between atoms: _713  and  _714
REMARK  279  A    between atoms: _714  and  _715
REMARK  280  A    between atoms: _720  and  _722
REMARK  281  A    between atoms: _722  and  _723
REMARK  282  A    between atoms: _722  and  _725
REMARK                            x       y       z     vdW  Elec       q    Type
REMARK                         _______ _______ _______ _____ _____    ______ ____
ROOT
ATOM      1  C   ASP A   1      -5.771  33.240  11.498  0.00  0.00    +0.239 C 
ATOM      2  O   ASP A   1      -6.109  34.104  12.324  0.00  0.00    -0.274 OA
ATOM      3  N   LEU A   2      -6.655  32.489  10.831  0.00  0.00    -0.298 N 
ATOM      4  H   LEU A   2      -6.321  31.819  10.109  0.00  0.00    +0.150 HD
ENDROOT
BRANCH   1   5
ATOM      5  CA  ASP A   1      -4.309  33.041  11.140  0.00  0.00    +0.156 C 
BRANCH   5   6
ATOM      6  N   ASP A   1      -4.035  31.589  11.023  0.00  0.00    -0.238 NA
ATOM      7  H   ASP A   1      -3.736  31.179  10.115  0.00  0.00    +0.142 HD
ENDBRANCH   5   6
BRANCH   5   8
ATOM      8  CB  ASP A   1      -4.010  33.726   9.820  0.00  0.00    +0.140 C 
BRANCH   8   9
ATOM      9  CG  ASP A   1      -2.532  33.950   9.602  0.00  0.00    +0.367 C 
ATOM     10  OD2 ASP A   1      -1.738  33.657  10.523  0.00  0.00    -0.246 OA
ATOM     11  OD1 ASP A   1      -2.169  34.478   8.523  0.00  0.00    -0.246 OA
ENDBRANCH   8   9
ENDBRANCH   5   8
ENDBRANCH   1   5
BRANCH   3  12
ATOM     12  CA  LEU A   2      -8.105  32.604  11.112  0.00  0.00    +0.137 C 
BRANCH  12  13
ATOM     13  C   LEU A   2      -8.422  32.225  12.531  0.00  0.00    +0.227 C 
ATOM     14  O   LEU A   2      -9.207  32.886  13.199  0.00  0.00    -0.286 OA
ENDBRANCH  12  13
BRANCH  12  15
ATOM     15  CB  LEU A   2      -8.965  31.738  10.194  0.00  0.00    +0.028 C 
BRANCH  15  16
ATOM     16  CG  LEU A   2      -9.431  32.315   8.864  0.00  0.00    +0.002 C 
ATOM     17  CD2 LEU A   2      -9.977  33.741   8.999  0.00  0.00    +0.000 C 
ATOM     18  CD1 LEU A   2     -10.468  31.388   8.211  0.00  0.00    +0.000 C 
ENDBRANCH  15  16
ENDBRANCH  12  15
ENDBRANCH   3  12
TORSDOF 8
REMARK  Name = ../refined-set-2016/4w97/4w97_pocket.pdb
REMARK  282 active torsions:
REMARK  status: ('A' for Active; 'I' for Inactive)
REMARK    1  A    between atoms: _1  and  _3
REMARK    2  A    between atoms: _3  and  _4
REMARK    3  A    between atoms: _3  and  _6
REMARK    4  A    between atoms: _6  and  _7
REMARK    5  A    between atoms: _10  and  _12
REMARK    6  A    between atoms: _12  and  _13
REMARK    7  A    between atoms: _12  and  _15
REMARK    8  A    between atoms: _15  and  _16
REMARK    9  A    between atoms: _22  and  _24
REMARK   10  A    between atoms: _24  and  _25
REMARK   11  A    between atoms: _24  and  _27
REMARK   12  A    between atoms: _27  and  _28
REMARK   13  A    between atoms: _31  and  _33
REMARK   14  A    between atoms: _33  and  _34
REMARK   15  A    between atoms: _33  and  _36
REMARK   16  A    between atoms: _36  and  _37
REMARK   17  A    between atoms: _40  and  _42
REMARK   18  A    between atoms: _42  and  _43
REMARK   19  A    between atoms: _42  and  _45
REMARK   20  A    between atoms: _45  and  _46
REMARK   21  A    between atoms: _52  and  _54
REMARK   22  A    between atoms: _54  and  _55
REMARK   23  A    between atoms: _54  and  _57
REMARK   24  A    between atoms: _57  and  _58
REMARK   25  A    between atoms: _63  and  _64
REMARK   26  A    between atoms: _66  and  _68
REMARK   27  A    between atoms: _68  and  _69
REMARK   28  A    between atoms: _68  and  _71
REMARK   29  A    between atoms: _71  and  _72
REMARK   30  A    between atoms: _74  and  _76
REMARK   31  A    between atoms: _76  and  _77
REMARK   32  A    between atoms: _80  and  _82
REMARK   33  A    between atoms: _82  and  _83
REMARK   34  A    between atoms: _82  and  _85
REMARK   35  A    between atoms: _85  and  _86
REMARK   36  A    between atoms: _89  and  _91
REMARK   37  A    between atoms: _91  and  _92
REMARK   38  A    between atoms: _91  and  _94
REMARK   39  A    between atoms: _94  and  _95
REMARK   40  A    between atoms: _95  and  _96
REMARK   41  A    between atoms: _101  and  _103
REMARK   42  A    between atoms: _103  and  _104
REMARK   43  A    between atoms: _103  and  _106
REMARK   44  A    between atoms: _109  and  _111
REMARK   45  A    between atoms: _111  and  _112
REMARK   46  A    between atoms: _111  and  _114
REMARK   47  A    between atoms: _117  and  _119
REMARK   48  A    between atoms: _119  and  _120
REMARK   49  A    between atoms: _119  and  _122
REMARK   50  A    between atoms: _122  and  _123
REMARK   51  A    between atoms: _126  and  _128
REMARK   52  A    between atoms: _128  and  _129
REMARK   53  A    between atoms: _128  and  _131
REMARK   54  A    between atoms: _131  and  _132
REMARK   55  A    between atoms: _137  and  _138
REMARK   56  A    between atoms: _140  and  _142
REMARK   57  A    between atoms: _142  and  _143
REMARK   58  A    between atoms: _142  and  _145
REMARK   59  A    between atoms: _145  and  _146
REMARK   60  A    between atoms: _146  and  _147
REMARK   61  A    between atoms: _152  and  _154
REMARK   62  A    between atoms: _154  and  _155
REMARK   63  A    between atoms: _154  and  _157
REMARK   64  A    between atoms: _157  and  _158
REMARK   65  A    between atoms: _161  and  _163
REMARK   66  A    between atoms: _163  and  _164
REMARK   67  A    between atoms: _163  and  _166
REMARK   68  A    between atoms: _166  and  _167
REMARK   69  A    between atoms: _167  and  _168
REMARK   70  A    between atoms: _171  and  _173
REMARK   71  A    between atoms: _173  and  _174
REMARK   72  A    between atoms: _177  and  _179
REMARK   73  A    between atoms: _179  and  _180
REMARK   74  A    between atoms: _179  and  _182
REMARK   75  A    between atoms: _182  and  _183
REMARK   76  A    between atoms: _183  and  _184
REMARK   77  A    between atoms: _189  and  _191
REMARK   78  A    between atoms: _191  and  _192
REMARK   79  A    between atoms: _191  and  _194
REMARK   80  A    between atoms: _194  and  _195
REMARK   81  A    between atoms: _195  and  _196
REMARK   82  A    between atoms: _196  and  _197
REMARK   83  A    between atoms: _206  and  _208
REMARK   84  A    between atoms: _208  and  _209
REMARK   85  A    between atoms: _212  and  _214
REMARK   86  A    between atoms: _214  and  _215
REMARK   87  A    between atoms: _214  and  _217
REMARK   88  A    between atoms: _217  and  _218
REMARK   89  A    between atoms: _223  and  _224
REMARK   90  A    between atoms: _226  and  _228
REMARK   91  A    between atoms: _228  and  _229
REMARK   92  A    between atoms: _228  and  _231
REMARK   93  A    between atoms: _231  and  _232
REMARK   94  A    between atoms: _235  and  _237
REMARK   95  A    between atoms: _237  and  _238
REMARK   96  A    between atoms: _237  and  _240
REMARK   97  A    between atoms: _240  and  _241
REMARK   98  A    between atoms: _241  and  _242
REMARK   99  A    between atoms: _245  and  _247
REMARK  100  A    between atoms: _247  and  _248
REMARK  101  A    between atoms: _247  and  _250
REMARK  102  A    between atoms: _250  and  _251
REMARK  103  A    between atoms: _254  and  _256
REMARK  104  A    between atoms: _256  and  _257
REMARK  105  A    between atoms: _256  and  _259
REMARK  106  A    between atoms: _259  and  _260
REMARK  107  A    between atoms: _260  and  _261
REMARK  108  A    between atoms: _261  and  _262
REMARK  109  A    between atoms: _271  and  _273
REMARK  110  A    between atoms: _273  and  _274
REMARK  111  A    between atoms: _273  and  _276
REMARK  112  A    between atoms: _276  and  _277
REMARK  113  A    between atoms: _282  and  _284
REMARK  114  A    between atoms: _284  and  _285
REMARK  115  A    between atoms: _284  and  _287
REMARK  116  A    between atoms: _287  and  _288
REMARK  117  A    between atoms: _288  and  _289
REMARK  118  A    between atoms: _289  and  _290
REMARK  119  A    between atoms: _290  and  _291
REMARK  120  A    between atoms: _295  and  _297
REMARK  121  A    between atoms: _297  and  _298
REMARK  122  A    between atoms: _297  and  _300
REMARK  123  A    between atoms: _300  and  _301
REMARK  124  A    between atoms: _301  and  _302
REMARK  125  A    between atoms: _307  and  _309
REMARK  126  A    between atoms: _309  and  _310
REMARK  127  A    between atoms: _309  and  _312
REMARK  128  A    between atoms: _312  and  _313
REMARK  129  A    between atoms: _313  and  _314
REMARK  130  A    between atoms: _319  and  _321
REMARK  131  A    between atoms: _321  and  _322
REMARK  132  A    between atoms: _321  and  _324
REMARK  133  A    between atoms: _324  and  _325
REMARK  134  A    between atoms: _325  and  _326
REMARK  135  A    between atoms: _326  and  _327
REMARK  136  A    between atoms: _336  and  _338
REMARK  137  A    between atoms: _338  and  _339
REMARK  138  A    between atoms: _338  and  _341
REMARK  139  A    between atoms: _341  and  _342
REMARK  140  A    between atoms: _342  and  _343
REMARK  141  A    between atoms: _345  and  _347
REMARK  142  A    between atoms: _347  and  _348
REMARK  143  A    between atoms: _347  and  _350
REMARK  144  A    between atoms: _350  and  _351
REMARK  145  A    between atoms: _361  and  _363
REMARK  146  A    between atoms: _363  and  _364
REMARK  147  A    between atoms: _363  and  _366
REMARK  148  A    between atoms: _366  and  _367
REMARK  149  A    between atoms: _370  and  _372
REMARK  150  A    between atoms: _372  and  _373
REMARK  151  A    between atoms: _372  and  _375
REMARK  152  A    between atoms: _375  and  _376
REMARK  153  A    between atoms: _379  and  _381
REMARK  154  A    between atoms: _381  and  _382
REMARK  155  A    between atoms: _381  and  _384
REMARK  156  A    between atoms: _384  and  _385
REMARK  157  A    between atoms: _388  and  _390
REMARK  158  A    between atoms: _390  and  _391
REMARK  159  A    between atoms: _390  and  _393
REMARK  160  A    between atoms: _393  and  _394
REMARK  161  A    between atoms: _399  and  _400
REMARK  162  A    between atoms: _402  and  _404
REMARK  163  A    between atoms: _404  and  _405
REMARK  164  A    between atoms: _404  and  _407
REMARK  165  A    between atoms: _407  and  _408
REMARK  166  A    between atoms: _408  and  _409
REMARK  167  A    between atoms: _409  and  _410
REMARK  168  A    between atoms: _419  and  _421
REMARK  169  A    between atoms: _421  and  _422
REMARK  170  A    between atoms: _421  and  _424
REMARK  171  A    between atoms: _424  and  _425
REMARK  172  A    between atoms: _431  and  _433
REMARK  173  A    between atoms: _433  and  _434
REMARK  174  A    between atoms: _433  and  _436
REMARK  175  A    between atoms: _436  and  _437
REMARK  176  A    between atoms: _440  and  _442
REMARK  177  A    between atoms: _442  and  _443
REMARK  178  A    between atoms: _442  and  _445
REMARK  179  A    between atoms: _445  and  _446
REMARK  180  A    between atoms: _446  and  _447
REMARK  181  A    between atoms: _447  and  _448
REMARK  182  A    between atoms: _457  and  _459
REMARK  183  A    between atoms: _459  and  _460
REMARK  184  A    between atoms: _459  and  _462
REMARK  185  A    between atoms: _462  and  _463
REMARK  186  A    between atoms: _466  and  _468
REMARK  187  A    between atoms: _468  and  _469
REMARK  188  A    between atoms: _468  and  _471
REMARK  189  A    between atoms: _471  and  _472
REMARK  190  A    between atoms: _475  and  _477
REMARK  191  A    between atoms: _477  and  _478
REMARK  192  A    between atoms: _477  and  _480
REMARK  193  A    between atoms: _480  and  _481
REMARK  194  A    between atoms: _484  and  _486
REMARK  195  A    between atoms: _486  and  _487
REMARK  196  A    between atoms: _486  and  _489
REMARK  197  A    between atoms: _489  and  _490
REMARK  198  A    between atoms: _500  and  _502
REMARK  199  A    between atoms: _502  and  _503
REMARK  200  A    between atoms: _502  and  _505
REMARK  201  A    between atoms: _508  and  _510
REMARK  202  A    between atoms: _510  and  _511
REMARK  203  A    between atoms: _510  and  _513
REMARK  204  A    between atoms: _513  and  _514
REMARK  205  A    between atoms: _516  and  _518
REMARK  206  A    between atoms: _518  and  _519
REMARK  207  A    between atoms: _518  and  _521
REMARK  208  A    between atoms: _524  and  _526
REMARK  209  A    between atoms: _526  and  _527
REMARK  210  A    between atoms: _526  and  _529
REMARK  211  A    between atoms: _529  and  _530
REMARK  212  A    between atoms: _530  and  _531
REMARK  213  A    between atoms: _531  and  _532
REMARK  214  A    between atoms: _541  and  _543
REMARK  215  A    between atoms: _543  and  _544
REMARK  216  A    between atoms: _543  and  _546
REMARK  217  A    between atoms: _546  and  _547
REMARK  218  A    between atoms: _547  and  _548
REMARK  219  A    between atoms: _551  and  _553
REMARK  220  A    between atoms: _553  and  _554
REMARK  221  A    between atoms: _553  and  _556
REMARK  222  A    between atoms: _556  and  _557
REMARK  223  A    between atoms: _557  and  _558
REMARK  224  A    between atoms: _563  and  _565
REMARK  225  A    between atoms: _565  and  _566
REMARK  226  A    between atoms: _565  and  _568
REMARK  227  A    between atoms: _568  and  _569
REMARK  228  A    between atoms: _572  and  _574
REMARK  229  A    between atoms: _574  and  _575
REMARK  230  A    between atoms: _574  and  _577
REMARK  231  A    between atoms: _580  and  _582
REMARK  232  A    between atoms: _582  and  _583
REMARK  233  A    between atoms: _582  and  _585
REMARK  234  A    between atoms: _585  and  _586
REMARK  235  A    between atoms: _588  and  _590
REMARK  236  A    between atoms: _590  and  _591
REMARK  237  A    between atoms: _590  and  _593
REMARK  238  A    between atoms: _596  and  _598
REMARK  239  A    between atoms: _598  and  _599
REMARK  240  A    between atoms: _598  and  _601
REMARK  241  A    between atoms: _601  and  _602
REMARK  242  A    between atoms: _602  and  _603
REMARK  243  A    between atoms: _603  and  _604
REMARK  244  A    between atoms: _613  and  _615
REMARK  245  A    between atoms: _615  and  _616
REMARK  246  A    between atoms: _615  and  _618
REMARK  247  A    between atoms: _618  and  _619
REMARK  248  A    between atoms: _629  and  _631
REMARK  249  A    between atoms: _631  and  _632
REMARK  250  A    between atoms: _631  and  _634
REMARK  251  A    between atoms: _634  and  _635
REMARK  252  A    between atoms: _640  and  _641
REMARK  253  A    between atoms: _643  and  _645
REMARK  254  A    between atoms: _645  and  _646
REMARK  255  A    between atoms: _645  and  _648
REMARK  256  A    between atoms: _648  and  _649
REMARK  257  A    between atoms: _649  and  _650
REMARK  258  A    between atoms: _650  and  _651
REMARK  259  A    between atoms: _661  and  _662
REMARK  260  A    between atoms: _667  and  _669
REMARK  261  A    between atoms: _669  and  _670
REMARK  262  A    between atoms: _672  and  _674
REMARK  263  A    between atoms: _674  and  _675
REMARK  264  A    between atoms: _678  and  _679
REMARK  265  A    between atoms: _684  and  _686
REMARK  266  A    between atoms: _686  and  _687
REMARK  267  A    between atoms: _686  and  _689
REMARK  268  A    between atoms: _689  and  _690
REMARK  269  A    between atoms: _693  and  _695
REMARK  270  A    between atoms: _695  and  _696
REMARK  271  A    between atoms: _695  and  _698
REMARK  272  A    between atoms: _698  and  _699
REMARK  273  A    between atoms: _702  and  _704
REMARK  274  A    between atoms: _704  and  _705
REMARK  275  A    between atoms: _708  and  _710
REMARK  276  A    between atoms: _710  and  _711
REMARK  277  A    between atoms: _710  and  _713
REMARK  278  A    between atoms: _713  and  _714
REMARK  279  A    between atoms: _714  and  _715
REMARK  280  A    between atoms: _720  and  _722
REMARK  281  A    between atoms: _722  and  _723
REMARK  282  A    between atoms: _722  and  _725
REMARK                            x       y       z     vdW  Elec       q    Type
REMARK                         _______ _______ _______ _____ _____    ______ ____
ROOT
ATOM      1  C   ASP A   6     -12.790  37.870  20.074  0.00  0.00    +0.241 C 
ATOM      2  O   ASP A   6     -13.360  38.683  20.841  0.00  0.00    -0.273 OA
ATOM      3  N   THR A   7     -12.964  36.556  20.102  0.00  0.00    -0.295 N 
ATOM      4  H   THR A   7     -12.366  35.970  19.485  0.00  0.00    +0.150 HD
ENDROOT
BRANCH   1   5
ATOM      5  CA  ASP A   6     -11.827  38.424  19.056  0.00  0.00    +0.160 C 
BRANCH   5   8
ATOM      6  C   ARG A   5      -9.770  37.738  20.040  0.00  0.00    +0.241 C 
ATOM      7  O   ARG A   5     -10.032  38.390  21.093  0.00  0.00    -0.273 OA
ATOM      8  N   ASP A   6     -10.612  37.632  19.025  0.00  0.00    -0.297 N 
ATOM      9  H   ASP A   6     -10.408  36.998  18.226  0.00  0.00    +0.150 HD
BRANCH   6  10
ATOM     10  CA  ARG A   5      -8.455  37.025  19.914  0.00  0.00    +0.149 C 
BRANCH  10  13
ATOM     11  C   ILE A   4      -9.424  34.839  20.143  0.00  0.00    +0.241 C 
ATOM     12  O   ILE A   4      -9.986  35.127  21.173  0.00  0.00    -0.273 OA
ATOM     13  N   ARG A   5      -8.689  35.653  19.435  0.00  0.00    -0.297 N 
ATOM     14  H   ARG A   5      -8.271  35.334  18.538  0.00  0.00    +0.150 HD
BRANCH  11  15
ATOM     15  CA  ILE A   4      -9.586  33.422  19.533  0.00  0.00    +0.149 C 
BRANCH  15  18
ATOM     16  C   PHE A   3     -10.981  34.017  17.650  0.00  0.00    +0.241 C 
ATOM     17  O   PHE A   3     -11.869  34.444  18.410  0.00  0.00    -0.273 OA
ATOM     18  N   ILE A   4      -9.863  33.451  18.113  0.00  0.00    -0.297 N 
ATOM     19  H   ILE A   4      -9.186  33.027  17.447  0.00  0.00    +0.150 HD
BRANCH  16  20
ATOM     20  CA  PHE A   3     -11.219  33.979  16.128  0.00  0.00    +0.153 C 
BRANCH  20  23
ATOM     21  C   ARG A   2      -9.591  35.700  15.696  0.00  0.00    +0.241 C 
ATOM     22  O   ARG A   2     -10.144  36.475  16.488  0.00  0.00    -0.273 OA
ATOM     23  N   PHE A   3     -10.030  34.463  15.458  0.00  0.00    -0.297 N 
ATOM     24  H   PHE A   3      -9.520  33.848  14.793  0.00  0.00    +0.150 HD
BRANCH  21  25
ATOM     25  CA  ARG A   2      -8.281  36.103  14.994  0.00  0.00    +0.149 C 
BRANCH  25  28
ATOM     26  C   TYR A   1      -6.850  34.476  16.031  0.00  0.00    +0.239 C 
ATOM     27  O   TYR A   1      -7.133  34.926  17.153  0.00  0.00    -0.274 OA
ATOM     28  N   ARG A   2      -7.383  34.911  14.904  0.00  0.00    -0.297 N 
ATOM     29  H   ARG A   2      -7.187  34.446  13.995  0.00  0.00    +0.150 HD
BRANCH  26  30
ATOM     30  CA  TYR A   1      -5.835  33.317  15.926  0.00  0.00    +0.149 C 
BRANCH  30  31
ATOM     31  N   TYR A   1      -6.314  32.253  15.091  0.00  0.00    -0.238 NA
ATOM     32  H   TYR A   1      -5.748  31.903  14.292  0.00  0.00    +0.142 HD
ENDBRANCH  30  31
BRANCH  30  33
ATOM     33  CB  TYR A   1      -4.466  33.822  15.373  0.00  0.00    +0.053 C 
BRANCH  33  34
ATOM     34  CG  TYR A   1      -4.221  35.254  15.747  0.00  0.00    -0.020 A 
ATOM     35  CD2 TYR A   1      -4.028  35.639  17.079  0.00  0.00    -0.001 A 
ATOM     36  CE2 TYR A   1      -3.873  37.064  17.402  0.00  0.00    +0.036 A 
ATOM     37  CZ  TYR A   1      -3.917  37.922  16.385  0.00  0.00    +0.134 A 
ATOM     38  CE1 TYR A   1      -4.048  37.559  15.054  0.00  0.00    +0.036 A 
ATOM     39  CD1 TYR A   1      -4.241  36.189  14.754  0.00  0.00    -0.001 A 
BRANCH  37  40
ATOM     40  OH  TYR A   1      -3.721  39.308  16.648  0.00  0.00    -0.506 OA
ATOM     41  HH  TYR A   1      -2.893  39.614  16.200  0.00  0.00    +0.292 HD
ENDBRANCH  37  40
ENDBRANCH  33  34
ENDBRANCH  30  33
ENDBRANCH  26  30
ENDBRANCH  25  28
BRANCH  25  42
ATOM     42  CB  ARG A   2      -8.600  36.616  13.616  0.00  0.00    +0.033 C 
BRANCH  42  43
ATOM     43  CG  ARG A   2      -7.355  37.205  12.992  0.00  0.00    +0.045 C 
BRANCH  43  44
ATOM     44  CD  ARG A   2      -7.721  37.987  11.740  0.00  0.00    +0.174 C 
BRANCH  44  45
ATOM     45  NE  ARG A   2      -7.914  37.133  10.578  0.00  0.00    -0.265 N 
ATOM     46  HE  ARG A   2      -8.863  36.746  10.402  0.00  0.00    +0.259 HD
ATOM     47  CZ  ARG A   2      -6.934  36.822   9.727  0.00  0.00    +0.342 C 
ATOM     48  NH2 ARG A   2      -5.701  37.289   9.942  0.00  0.00    -0.292 N 
ATOM     49 HH21 ARG A   2      -5.510  37.891  10.768  0.00  0.00    +0.255 HD
ATOM     50 HH22 ARG A   2      -4.932  37.051   9.283  0.00  0.00    +0.255 HD
ATOM     51  NH1 ARG A   2      -7.179  36.052   8.673  0.00  0.00    -0.292 N 
ATOM     52 HH11 ARG A   2      -8.139  35.688   8.507  0.00  0.00    +0.255 HD
ATOM     53 HH12 ARG A   2      -6.411  35.813   8.014  0.00  0.00    +0.255 HD
ENDBRANCH  44  45
ENDBRANCH  43  44
ENDBRANCH  42  43
ENDBRANCH  25  42
ENDBRANCH  21  25
ENDBRANCH  20  23
BRANCH  20  54
ATOM     54  CB  PHE A   3     -11.536  32.549  15.624  0.00  0.00    +0.055 C 
BRANCH  54  55
ATOM     55  CG  PHE A   3     -12.765  31.899  16.263  0.00  0.00    -0.020 A 
ATOM     56  CD2 PHE A   3     -12.684  31.325  17.537  0.00  0.00    -0.004 A 
ATOM     57  CE2 PHE A   3     -13.838  30.706  18.119  0.00  0.00    -0.000 A 
ATOM     58  CZ  PHE A   3     -15.015  30.636  17.401  0.00  0.00    -0.000 A 
ATOM     59  CE1 PHE A   3     -15.069  31.170  16.094  0.00  0.00    -0.000 A 
ATOM     60  CD1 PHE A   3     -13.932  31.799  15.561  0.00  0.00    -0.004 A 
ENDBRANCH  54  55
ENDBRANCH  20  54
ENDBRANCH  16  20
ENDBRANCH  15  18
BRANCH  15  61
ATOM     61  CB  ILE A   4      -8.373  32.579  19.808  0.00  0.00    +0.027 C 
ATOM     62  CG2 ILE A   4      -7.922  32.806  21.266  0.00  0.00    +0.002 C 
BRANCH  61  63
ATOM     63  CG1 ILE A   4      -8.767  31.110  19.573  0.00  0.00    +0.002 C 
ATOM     64  CD1 ILE A   4      -7.538  30.214  19.749  0.00  0.00    +0.000 C 
ENDBRANCH  61  63
ENDBRANCH  15  61
ENDBRANCH  11  15
ENDBRANCH  10  13
BRANCH  10  65
ATOM     65  CB  ARG A   5      -7.558  37.740  18.970  0.00  0.00    +0.033 C 
BRANCH  65  66
ATOM     66  CG  ARG A   5      -7.319  39.206  19.389  0.00  0.00    +0.045 C 
BRANCH  66  67
ATOM     67  CD  ARG A   5      -6.870  39.944  18.170  0.00  0.00    +0.174 C 
BRANCH  67  68
ATOM     68  NE  ARG A   5      -7.869  40.064  17.112  0.00  0.00    -0.265 N 
ATOM     69  HE  ARG A   5      -8.854  39.822  17.341  0.00  0.00    +0.259 HD
ATOM     70  CZ  ARG A   5      -7.596  40.463  15.876  0.00  0.00    +0.342 C 
ATOM     71  NH2 ARG A   5      -6.346  40.777  15.527  0.00  0.00    -0.292 N 
ATOM     72 HH21 ARG A   5      -5.579  40.710  16.226  0.00  0.00    +0.255 HD
ATOM     73 HH22 ARG A   5      -6.140  41.089  14.557  0.00  0.00    +0.255 HD
ATOM     74  NH1 ARG A   5      -8.565  40.531  14.981  0.00  0.00    -0.292 N 
ATOM     75 HH11 ARG A   5      -9.537  40.272  15.246  0.00  0.00    +0.255 HD
ATOM     76 HH12 ARG A   5      -8.356  40.843  14.011  0.00  0.00    +0.255 HD
ENDBRANCH  67  68
ENDBRANCH  66  67
ENDBRANCH  65  66
ENDBRANCH  10  65
ENDBRANCH   6  10
ENDBRANCH   5   8
BRANCH   5  77
ATOM     77  CB  ASP A   6     -12.498  38.491  17.681  0.00  0.00    +0.143 C 
BRANCH  77  78
ATOM     78  CG  ASP A   6     -11.722  39.370  16.714  0.00  0.00    +0.367 C 
ATOM     79  OD2 ASP A   6     -10.732  40.047  17.116  0.00  0.00    -0.246 OA
ATOM     80  OD1 ASP A   6     -12.094  39.367  15.561  0.00  0.00    -0.246 OA
ENDBRANCH  77  78
ENDBRANCH   5  77
ENDBRANCH   1   5
BRANCH   3  81
ATOM     81  CA  THR A   7     -13.962  35.872  20.962  0.00  0.00    +0.176 C 
BRANCH  81  82
ATOM     82  C   THR A   7     -13.815  36.313  22.381  0.00  0.00    +0.243 C 
ATOM     83  O   THR A   7     -14.755  36.784  23.073  0.00  0.00    -0.273 OA
ATOM     84  N   THR A   8     -12.581  36.147  22.820  0.00  0.00    -0.295 N 
ATOM     85  H   THR A   8     -11.816  35.872  22.171  0.00  0.00    +0.150 HD
BRANCH  84  86
ATOM     86  CA  THR A   8     -12.322  36.356  24.216  0.00  0.00    +0.176 C 
BRANCH  86  87
ATOM     87  C   THR A   8     -12.258  37.849  24.600  0.00  0.00    +0.243 C 
ATOM     88  O   THR A   8     -13.027  38.269  25.504  0.00  0.00    -0.273 OA
ATOM     89  N   TRP A   9     -11.406  38.597  23.925  0.00  0.00    -0.297 N 
ATOM     90  H   TRP A   9     -10.847  38.221  23.132  0.00  0.00    +0.150 HD
BRANCH  89  91
ATOM     91  CA  TRP A   9     -11.297  39.991  24.363  0.00  0.00    +0.153 C 
BRANCH  91  92
ATOM     92  C   TRP A   9     -12.586  40.799  24.216  0.00  0.00    +0.241 C 
ATOM     93  O   TRP A   9     -12.820  41.753  25.017  0.00  0.00    -0.273 OA
ATOM     94  N   VAL A  10     -13.429  40.523  23.225  0.00  0.00    -0.297 N 
ATOM     95  H   VAL A  10     -13.303  39.693  22.612  0.00  0.00    +0.150 HD
BRANCH  94  96
ATOM     96  CA  VAL A  10     -14.561  41.468  23.044  0.00  0.00    +0.149 C 
BRANCH  96  97
ATOM     97  C   VAL A  10     -15.631  41.239  24.140  0.00  0.00    +0.241 C 
ATOM     98  N   SER A  11     -15.522  40.152  24.919  0.00  0.00    -0.295 N 
ATOM     99  H   SER A  11     -14.763  39.459  24.760  0.00  0.00    +0.150 HD
ATOM    100  O   VAL A  10     -16.555  42.044  24.278  0.00  0.00    -0.273 OA
BRANCH  98 101
ATOM    101  CA  SER A  11     -16.500  39.960  26.004  0.00  0.00    +0.178 C 
BRANCH 101 102
ATOM    102  C   SER A  11     -16.409  41.084  27.053  0.00  0.00    +0.243 C 
ATOM    103  O   SER A  11     -17.379  41.290  27.773  0.00  0.00    -0.273 OA
ATOM    104  N   VAL A  12     -15.315  41.877  27.048  0.00  0.00    -0.297 N 
ATOM    105  H   VAL A  12     -14.517  41.648  26.421  0.00  0.00    +0.150 HD
BRANCH 104 106
ATOM    106  CA  VAL A  12     -15.239  43.065  27.922  0.00  0.00    +0.149 C 
BRANCH 106 107
ATOM    107  C   VAL A  12     -16.397  44.053  27.612  0.00  0.00    +0.241 C 
ATOM    108  O   VAL A  12     -16.789  44.843  28.481  0.00  0.00    -0.273 OA
ATOM    109  N   ARG A  13     -16.972  43.982  26.403  0.00  0.00    -0.298 N 
ATOM    110  H   ARG A  13     -16.677  43.256  25.719  0.00  0.00    +0.150 HD
BRANCH 109 111
ATOM    111  CA  ARG A  13     -18.026  44.947  26.060  0.00  0.00    +0.137 C 
BRANCH 111 112
ATOM    112  C   ARG A  13     -19.339  44.651  26.744  0.00  0.00    +0.227 C 
ATOM    113  O   ARG A  13     -20.132  45.571  26.877  0.00  0.00    -0.286 OA
ENDBRANCH 111 112
BRANCH 111 114
ATOM    114  CB  ARG A  13     -18.266  45.015  24.539  0.00  0.00    +0.031 C 
BRANCH 114 115
ATOM    115  CG  ARG A  13     -16.997  45.430  23.749  0.00  0.00    +0.045 C 
BRANCH 115 116
ATOM    116  CD  ARG A  13     -16.551  46.835  24.119  0.00  0.00    +0.174 C 
BRANCH 116 117
ATOM    117  NE  ARG A  13     -15.607  47.353  23.122  0.00  0.00    -0.265 N 
ATOM    118  CZ  ARG A  13     -14.990  48.525  23.215  0.00  0.00    +0.342 C 
ATOM    119  NH2 ARG A  13     -15.207  49.304  24.274  0.00  0.00    -0.292 N 
ATOM    120 HH21 ARG A  13     -15.858  48.993  25.024  0.00  0.00    +0.255 HD
ATOM    121 HH22 ARG A  13     -14.726  50.223  24.351  0.00  0.00    +0.255 HD
ATOM    122  NH1 ARG A  13     -14.160  48.916  22.245  0.00  0.00    -0.292 N 
ATOM    123 HH11 ARG A  13     -13.675  49.833  22.314  0.00  0.00    +0.255 HD
ATOM    124 HH12 ARG A  13     -13.999  48.303  21.420  0.00  0.00    +0.255 HD
ATOM    125  HE  ARG A  13     -15.408  46.764  22.288  0.00  0.00    +0.259 HD
ENDBRANCH 116 117
ENDBRANCH 115 116
ENDBRANCH 114 115
ENDBRANCH 111 114
ENDBRANCH 109 111
ENDBRANCH 106 107
BRANCH 106 126
ATOM    126  CB  VAL A  12     -13.861  43.769  27.794  0.00  0.00    +0.027 C 
ATOM    127  CG2 VAL A  12     -13.590  44.635  29.010  0.00  0.00    +0.002 C 
ATOM    128  CG1 VAL A  12     -13.809  44.687  26.525  0.00  0.00    +0.002 C 
ENDBRANCH 106 126
ENDBRANCH 104 106
ENDBRANCH 101 102
BRANCH 101 129
ATOM    129  CB  SER A  11     -16.352  38.569  26.697  0.00  0.00    +0.166 C 
BRANCH 129 130
ATOM    130  OG  SER A  11     -15.186  38.556  27.484  0.00  0.00    -0.380 OA
ATOM    131  H   SER A  11     -14.398  38.723  26.908  0.00  0.00    +0.211 HD
ENDBRANCH 129 130
ENDBRANCH 101 129
ENDBRANCH  98 101
ENDBRANCH  96  97
BRANCH  96 132
ATOM    132  CB  VAL A  10     -15.184  41.340  21.617  0.00  0.00    +0.027 C 
ATOM    133  CG2 VAL A  10     -16.078  40.217  21.524  0.00  0.00    +0.002 C 
ATOM    134  CG1 VAL A  10     -15.982  42.638  21.239  0.00  0.00    +0.002 C 
ENDBRANCH  96 132
ENDBRANCH  94  96
ENDBRANCH  91  92
BRANCH  91 135
ATOM    135  CB  TRP A   9     -10.165  40.713  23.579  0.00  0.00    +0.057 C 
BRANCH 135 136
ATOM    136  CG  TRP A   9      -8.821  40.266  23.993  0.00  0.00    -0.002 A 
ATOM    137  CD2 TRP A   9      -8.183  40.540  25.234  0.00  0.00    +0.013 A 
ATOM    138  CE3 TRP A   9      -8.530  41.298  26.354  0.00  0.00    +0.001 A 
ATOM    139  CZ3 TRP A   9      -7.614  41.426  27.427  0.00  0.00    +0.000 A 
ATOM    140  CH2 TRP A   9      -6.374  40.742  27.382  0.00  0.00    +0.001 A 
ATOM    141  CZ2 TRP A   9      -6.014  39.974  26.287  0.00  0.00    +0.017 A 
ATOM    142  CE2 TRP A   9      -6.909  39.898  25.210  0.00  0.00    +0.056 A 
ATOM    143  NE1 TRP A   9      -6.797  39.188  24.025  0.00  0.00    -0.352 N 
ATOM    144  HE1 TRP A   9      -5.987  38.603  23.736  0.00  0.00    +0.166 HD
ATOM    145  CD1 TRP A   9      -7.968  39.398  23.286  0.00  0.00    +0.068 A 
ENDBRANCH 135 136
ENDBRANCH  91 135
ENDBRANCH  89  91
ENDBRANCH  86  87
BRANCH  86 146
ATOM    146  CB  THR A   8     -11.027  35.719  24.625  0.00  0.00    +0.137 C 
ATOM    147  CG2 THR A   8     -11.142  34.235  24.320  0.00  0.00    +0.034 C 
BRANCH 146 148
ATOM    148  OG1 THR A   8      -9.859  36.279  23.960  0.00  0.00    -0.382 OA
ATOM    149  HG1 THR A   8      -9.949  36.160  22.981  0.00  0.00    +0.210 HD
ENDBRANCH 146 148
ENDBRANCH  86 146
ENDBRANCH  84  86
ENDBRANCH  81  82
BRANCH  81 150
ATOM    150  CB  THR A   7     -13.826  34.291  20.955  0.00  0.00    +0.137 C 
ATOM    151  CG2 THR A   7     -14.286  33.737  19.687  0.00  0.00    +0.034 C 
BRANCH 150 152
ATOM    152  OG1 THR A   7     -12.465  33.849  21.178  0.00  0.00    -0.382 OA
ATOM    153  HG1 THR A   7     -11.881  34.208  20.464  0.00  0.00    +0.210 HD
ENDBRANCH 150 152
ENDBRANCH  81 150
ENDBRANCH   3  81
TORSDOF 57
REMARK  Name = ../refined-set-2016/4w97/4w97_pocket.pdb
REMARK  282 active torsions:
REMARK  status: ('A' for Active; 'I' for Inactive)
REMARK    1  A    between atoms: _1  and  _3
REMARK    2  A    between atoms: _3  and  _4
REMARK    3  A    between atoms: _3  and  _6
REMARK    4  A    between atoms: _6  and  _7
REMARK    5  A    between atoms: _10  and  _12
REMARK    6  A    between atoms: _12  and  _13
REMARK    7  A    between atoms: _12  and  _15
REMARK    8  A    between atoms: _15  and  _16
REMARK    9  A    between atoms: _22  and  _24
REMARK   10  A    between atoms: _24  and  _25
REMARK   11  A    between atoms: _24  and  _27
REMARK   12  A    between atoms: _27  and  _28
REMARK   13  A    between atoms: _31  and  _33
REMARK   14  A    between atoms: _33  and  _34
REMARK   15  A    between atoms: _33  and  _36
REMARK   16  A    between atoms: _36  and  _37
REMARK   17  A    between atoms: _40  and  _42
REMARK   18  A    between atoms: _42  and  _43
REMARK   19  A    between atoms: _42  and  _45
REMARK   20  A    between atoms: _45  and  _46
REMARK   21  A    between atoms: _52  and  _54
REMARK   22  A    between atoms: _54  and  _55
REMARK   23  A    between atoms: _54  and  _57
REMARK   24  A    between atoms: _57  and  _58
REMARK   25  A    between atoms: _63  and  _64
REMARK   26  A    between atoms: _66  and  _68
REMARK   27  A    between atoms: _68  and  _69
REMARK   28  A    between atoms: _68  and  _71
REMARK   29  A    between atoms: _71  and  _72
REMARK   30  A    between atoms: _74  and  _76
REMARK   31  A    between atoms: _76  and  _77
REMARK   32  A    between atoms: _80  and  _82
REMARK   33  A    between atoms: _82  and  _83
REMARK   34  A    between atoms: _82  and  _85
REMARK   35  A    between atoms: _85  and  _86
REMARK   36  A    between atoms: _89  and  _91
REMARK   37  A    between atoms: _91  and  _92
REMARK   38  A    between atoms: _91  and  _94
REMARK   39  A    between atoms: _94  and  _95
REMARK   40  A    between atoms: _95  and  _96
REMARK   41  A    between atoms: _101  and  _103
REMARK   42  A    between atoms: _103  and  _104
REMARK   43  A    between atoms: _103  and  _106
REMARK   44  A    between atoms: _109  and  _111
REMARK   45  A    between atoms: _111  and  _112
REMARK   46  A    between atoms: _111  and  _114
REMARK   47  A    between atoms: _117  and  _119
REMARK   48  A    between atoms: _119  and  _120
REMARK   49  A    between atoms: _119  and  _122
REMARK   50  A    between atoms: _122  and  _123
REMARK   51  A    between atoms: _126  and  _128
REMARK   52  A    between atoms: _128  and  _129
REMARK   53  A    between atoms: _128  and  _131
REMARK   54  A    between atoms: _131  and  _132
REMARK   55  A    between atoms: _137  and  _138
REMARK   56  A    between atoms: _140  and  _142
REMARK   57  A    between atoms: _142  and  _143
REMARK   58  A    between atoms: _142  and  _145
REMARK   59  A    between atoms: _145  and  _146
REMARK   60  A    between atoms: _146  and  _147
REMARK   61  A    between atoms: _152  and  _154
REMARK   62  A    between atoms: _154  and  _155
REMARK   63  A    between atoms: _154  and  _157
REMARK   64  A    between atoms: _157  and  _158
REMARK   65  A    between atoms: _161  and  _163
REMARK   66  A    between atoms: _163  and  _164
REMARK   67  A    between atoms: _163  and  _166
REMARK   68  A    between atoms: _166  and  _167
REMARK   69  A    between atoms: _167  and  _168
REMARK   70  A    between atoms: _171  and  _173
REMARK   71  A    between atoms: _173  and  _174
REMARK   72  A    between atoms: _177  and  _179
REMARK   73  A    between atoms: _179  and  _180
REMARK   74  A    between atoms: _179  and  _182
REMARK   75  A    between atoms: _182  and  _183
REMARK   76  A    between atoms: _183  and  _184
REMARK   77  A    between atoms: _189  and  _191
REMARK   78  A    between atoms: _191  and  _192
REMARK   79  A    between atoms: _191  and  _194
REMARK   80  A    between atoms: _194  and  _195
REMARK   81  A    between atoms: _195  and  _196
REMARK   82  A    between atoms: _196  and  _197
REMARK   83  A    between atoms: _206  and  _208
REMARK   84  A    between atoms: _208  and  _209
REMARK   85  A    between atoms: _212  and  _214
REMARK   86  A    between atoms: _214  and  _215
REMARK   87  A    between atoms: _214  and  _217
REMARK   88  A    between atoms: _217  and  _218
REMARK   89  A    between atoms: _223  and  _224
REMARK   90  A    between atoms: _226  and  _228
REMARK   91  A    between atoms: _228  and  _229
REMARK   92  A    between atoms: _228  and  _231
REMARK   93  A    between atoms: _231  and  _232
REMARK   94  A    between atoms: _235  and  _237
REMARK   95  A    between atoms: _237  and  _238
REMARK   96  A    between atoms: _237  and  _240
REMARK   97  A    between atoms: _240  and  _241
REMARK   98  A    between atoms: _241  and  _242
REMARK   99  A    between atoms: _245  and  _247
REMARK  100  A    between atoms: _247  and  _248
REMARK  101  A    between atoms: _247  and  _250
REMARK  102  A    between atoms: _250  and  _251
REMARK  103  A    between atoms: _254  and  _256
REMARK  104  A    between atoms: _256  and  _257
REMARK  105  A    between atoms: _256  and  _259
REMARK  106  A    between atoms: _259  and  _260
REMARK  107  A    between atoms: _260  and  _261
REMARK  108  A    between atoms: _261  and  _262
REMARK  109  A    between atoms: _271  and  _273
REMARK  110  A    between atoms: _273  and  _274
REMARK  111  A    between atoms: _273  and  _276
REMARK  112  A    between atoms: _276  and  _277
REMARK  113  A    between atoms: _282  and  _284
REMARK  114  A    between atoms: _284  and  _285
REMARK  115  A    between atoms: _284  and  _287
REMARK  116  A    between atoms: _287  and  _288
REMARK  117  A    between atoms: _288  and  _289
REMARK  118  A    between atoms: _289  and  _290
REMARK  119  A    between atoms: _290  and  _291
REMARK  120  A    between atoms: _295  and  _297
REMARK  121  A    between atoms: _297  and  _298
REMARK  122  A    between atoms: _297  and  _300
REMARK  123  A    between atoms: _300  and  _301
REMARK  124  A    between atoms: _301  and  _302
REMARK  125  A    between atoms: _307  and  _309
REMARK  126  A    between atoms: _309  and  _310
REMARK  127  A    between atoms: _309  and  _312
REMARK  128  A    between atoms: _312  and  _313
REMARK  129  A    between atoms: _313  and  _314
REMARK  130  A    between atoms: _319  and  _321
REMARK  131  A    between atoms: _321  and  _322
REMARK  132  A    between atoms: _321  and  _324
REMARK  133  A    between atoms: _324  and  _325
REMARK  134  A    between atoms: _325  and  _326
REMARK  135  A    between atoms: _326  and  _327
REMARK  136  A    between atoms: _336  and  _338
REMARK  137  A    between atoms: _338  and  _339
REMARK  138  A    between atoms: _338  and  _341
REMARK  139  A    between atoms: _341  and  _342
REMARK  140  A    between atoms: _342  and  _343
REMARK  141  A    between atoms: _345  and  _347
REMARK  142  A    between atoms: _347  and  _348
REMARK  143  A    between atoms: _347  and  _350
REMARK  144  A    between atoms: _350  and  _351
REMARK  145  A    between atoms: _361  and  _363
REMARK  146  A    between atoms: _363  and  _364
REMARK  147  A    between atoms: _363  and  _366
REMARK  148  A    between atoms: _366  and  _367
REMARK  149  A    between atoms: _370  and  _372
REMARK  150  A    between atoms: _372  and  _373
REMARK  151  A    between atoms: _372  and  _375
REMARK  152  A    between atoms: _375  and  _376
REMARK  153  A    between atoms: _379  and  _381
REMARK  154  A    between atoms: _381  and  _382
REMARK  155  A    between atoms: _381  and  _384
REMARK  156  A    between atoms: _384  and  _385
REMARK  157  A    between atoms: _388  and  _390
REMARK  158  A    between atoms: _390  and  _391
REMARK  159  A    between atoms: _390  and  _393
REMARK  160  A    between atoms: _393  and  _394
REMARK  161  A    between atoms: _399  and  _400
REMARK  162  A    between atoms: _402  and  _404
REMARK  163  A    between atoms: _404  and  _405
REMARK  164  A    between atoms: _404  and  _407
REMARK  165  A    between atoms: _407  and  _408
REMARK  166  A    between atoms: _408  and  _409
REMARK  167  A    between atoms: _409  and  _410
REMARK  168  A    between atoms: _419  and  _421
REMARK  169  A    between atoms: _421  and  _422
REMARK  170  A    between atoms: _421  and  _424
REMARK  171  A    between atoms: _424  and  _425
REMARK  172  A    between atoms: _431  and  _433
REMARK  173  A    between atoms: _433  and  _434
REMARK  174  A    between atoms: _433  and  _436
REMARK  175  A    between atoms: _436  and  _437
REMARK  176  A    between atoms: _440  and  _442
REMARK  177  A    between atoms: _442  and  _443
REMARK  178  A    between atoms: _442  and  _445
REMARK  179  A    between atoms: _445  and  _446
REMARK  180  A    between atoms: _446  and  _447
REMARK  181  A    between atoms: _447  and  _448
REMARK  182  A    between atoms: _457  and  _459
REMARK  183  A    between atoms: _459  and  _460
REMARK  184  A    between atoms: _459  and  _462
REMARK  185  A    between atoms: _462  and  _463
REMARK  186  A    between atoms: _466  and  _468
REMARK  187  A    between atoms: _468  and  _469
REMARK  188  A    between atoms: _468  and  _471
REMARK  189  A    between atoms: _471  and  _472
REMARK  190  A    between atoms: _475  and  _477
REMARK  191  A    between atoms: _477  and  _478
REMARK  192  A    between atoms: _477  and  _480
REMARK  193  A    between atoms: _480  and  _481
REMARK  194  A    between atoms: _484  and  _486
REMARK  195  A    between atoms: _486  and  _487
REMARK  196  A    between atoms: _486  and  _489
REMARK  197  A    between atoms: _489  and  _490
REMARK  198  A    between atoms: _500  and  _502
REMARK  199  A    between atoms: _502  and  _503
REMARK  200  A    between atoms: _502  and  _505
REMARK  201  A    between atoms: _508  and  _510
REMARK  202  A    between atoms: _510  and  _511
REMARK  203  A    between atoms: _510  and  _513
REMARK  204  A    between atoms: _513  and  _514
REMARK  205  A    between atoms: _516  and  _518
REMARK  206  A    between atoms: _518  and  _519
REMARK  207  A    between atoms: _518  and  _521
REMARK  208  A    between atoms: _524  and  _526
REMARK  209  A    between atoms: _526  and  _527
REMARK  210  A    between atoms: _526  and  _529
REMARK  211  A    between atoms: _529  and  _530
REMARK  212  A    between atoms: _530  and  _531
REMARK  213  A    between atoms: _531  and  _532
REMARK  214  A    between atoms: _541  and  _543
REMARK  215  A    between atoms: _543  and  _544
REMARK  216  A    between atoms: _543  and  _546
REMARK  217  A    between atoms: _546  and  _547
REMARK  218  A    between atoms: _547  and  _548
REMARK  219  A    between atoms: _551  and  _553
REMARK  220  A    between atoms: _553  and  _554
REMARK  221  A    between atoms: _553  and  _556
REMARK  222  A    between atoms: _556  and  _557
REMARK  223  A    between atoms: _557  and  _558
REMARK  224  A    between atoms: _563  and  _565
REMARK  225  A    between atoms: _565  and  _566
REMARK  226  A    between atoms: _565  and  _568
REMARK  227  A    between atoms: _568  and  _569
REMARK  228  A    between atoms: _572  and  _574
REMARK  229  A    between atoms: _574  and  _575
REMARK  230  A    between atoms: _574  and  _577
REMARK  231  A    between atoms: _580  and  _582
REMARK  232  A    between atoms: _582  and  _583
REMARK  233  A    between atoms: _582  and  _585
REMARK  234  A    between atoms: _585  and  _586
REMARK  235  A    between atoms: _588  and  _590
REMARK  236  A    between atoms: _590  and  _591
REMARK  237  A    between atoms: _590  and  _593
REMARK  238  A    between atoms: _596  and  _598
REMARK  239  A    between atoms: _598  and  _599
REMARK  240  A    between atoms: _598  and  _601
REMARK  241  A    between atoms: _601  and  _602
REMARK  242  A    between atoms: _602  and  _603
REMARK  243  A    between atoms: _603  and  _604
REMARK  244  A    between atoms: _613  and  _615
REMARK  245  A    between atoms: _615  and  _616
REMARK  246  A    between atoms: _615  and  _618
REMARK  247  A    between atoms: _618  and  _619
REMARK  248  A    between atoms: _629  and  _631
REMARK  249  A    between atoms: _631  and  _632
REMARK  250  A    between atoms: _631  and  _634
REMARK  251  A    between atoms: _634  and  _635
REMARK  252  A    between atoms: _640  and  _641
REMARK  253  A    between atoms: _643  and  _645
REMARK  254  A    between atoms: _645  and  _646
REMARK  255  A    between atoms: _645  and  _648
REMARK  256  A    between atoms: _648  and  _649
REMARK  257  A    between atoms: _649  and  _650
REMARK  258  A    between atoms: _650  and  _651
REMARK  259  A    between atoms: _661  and  _662
REMARK  260  A    between atoms: _667  and  _669
REMARK  261  A    between atoms: _669  and  _670
REMARK  262  A    between atoms: _672  and  _674
REMARK  263  A    between atoms: _674  and  _675
REMARK  264  A    between atoms: _678  and  _679
REMARK  265  A    between atoms: _684  and  _686
REMARK  266  A    between atoms: _686  and  _687
REMARK  267  A    between atoms: _686  and  _689
REMARK  268  A    between atoms: _689  and  _690
REMARK  269  A    between atoms: _693  and  _695
REMARK  270  A    between atoms: _695  and  _696
REMARK  271  A    between atoms: _695  and  _698
REMARK  272  A    between atoms: _698  and  _699
REMARK  273  A    between atoms: _702  and  _704
REMARK  274  A    between atoms: _704  and  _705
REMARK  275  A    between atoms: _708  and  _710
REMARK  276  A    between atoms: _710  and  _711
REMARK  277  A    between atoms: _710  and  _713
REMARK  278  A    between atoms: _713  and  _714
REMARK  279  A    between atoms: _714  and  _715
REMARK  280  A    between atoms: _720  and  _722
REMARK  281  A    between atoms: _722  and  _723
REMARK  282  A    between atoms: _722  and  _725
REMARK                            x       y       z     vdW  Elec       q    Type
REMARK                         _______ _______ _______ _____ _____    ______ ____
ROOT
ATOM      1  CA  GLU A   1     -20.074  40.791   2.605  0.00  0.00    +0.134 C 
ENDROOT
BRANCH   1   2
ATOM      2  N   GLU A   1     -20.505  40.792   3.962  0.00  0.00    -0.239 NA
ATOM      3  H   GLU A   1     -21.077  39.998   4.315  0.00  0.00    +0.142 HD
ENDBRANCH   1   2
BRANCH   1   4
ATOM      4  C   GLU A   1     -20.805  41.833   1.760  0.00  0.00    +0.224 C 
ATOM      5  O   GLU A   1     -20.206  42.523   0.965  0.00  0.00    -0.287 OA
ENDBRANCH   1   4
BRANCH   1   6
ATOM      6  CB  GLU A   1     -20.311  39.426   1.973  0.00  0.00    +0.037 C 
BRANCH   6   7
ATOM      7  CG  GLU A   1     -19.683  39.306   0.616  0.00  0.00    +0.116 C 
BRANCH   7   8
ATOM      8  CD  GLU A   1     -18.132  39.141   0.697  0.00  0.00    +0.365 C 
ATOM      9  OE2 GLU A   1     -17.655  37.990   0.774  0.00  0.00    -0.246 OA
ATOM     10  OE1 GLU A   1     -17.402  40.161   0.746  0.00  0.00    -0.246 OA
ENDBRANCH   7   8
ENDBRANCH   6   7
ENDBRANCH   1   6
TORSDOF 5
REMARK  Name = ../refined-set-2016/4w97/4w97_pocket.pdb
REMARK  282 active torsions:
REMARK  status: ('A' for Active; 'I' for Inactive)
REMARK    1  A    between atoms: _1  and  _3
REMARK    2  A    between atoms: _3  and  _4
REMARK    3  A    between atoms: _3  and  _6
REMARK    4  A    between atoms: _6  and  _7
REMARK    5  A    between atoms: _10  and  _12
REMARK    6  A    between atoms: _12  and  _13
REMARK    7  A    between atoms: _12  and  _15
REMARK    8  A    between atoms: _15  and  _16
REMARK    9  A    between atoms: _22  and  _24
REMARK   10  A    between atoms: _24  and  _25
REMARK   11  A    between atoms: _24  and  _27
REMARK   12  A    between atoms: _27  and  _28
REMARK   13  A    between atoms: _31  and  _33
REMARK   14  A    between atoms: _33  and  _34
REMARK   15  A    between atoms: _33  and  _36
REMARK   16  A    between atoms: _36  and  _37
REMARK   17  A    between atoms: _40  and  _42
REMARK   18  A    between atoms: _42  and  _43
REMARK   19  A    between atoms: _42  and  _45
REMARK   20  A    between atoms: _45  and  _46
REMARK   21  A    between atoms: _52  and  _54
REMARK   22  A    between atoms: _54  and  _55
REMARK   23  A    between atoms: _54  and  _57
REMARK   24  A    between atoms: _57  and  _58
REMARK   25  A    between atoms: _63  and  _64
REMARK   26  A    between atoms: _66  and  _68
REMARK   27  A    between atoms: _68  and  _69
REMARK   28  A    between atoms: _68  and  _71
REMARK   29  A    between atoms: _71  and  _72
REMARK   30  A    between atoms: _74  and  _76
REMARK   31  A    between atoms: _76  and  _77
REMARK   32  A    between atoms: _80  and  _82
REMARK   33  A    between atoms: _82  and  _83
REMARK   34  A    between atoms: _82  and  _85
REMARK   35  A    between atoms: _85  and  _86
REMARK   36  A    between atoms: _89  and  _91
REMARK   37  A    between atoms: _91  and  _92
REMARK   38  A    between atoms: _91  and  _94
REMARK   39  A    between atoms: _94  and  _95
REMARK   40  A    between atoms: _95  and  _96
REMARK   41  A    between atoms: _101  and  _103
REMARK   42  A    between atoms: _103  and  _104
REMARK   43  A    between atoms: _103  and  _106
REMARK   44  A    between atoms: _109  and  _111
REMARK   45  A    between atoms: _111  and  _112
REMARK   46  A    between atoms: _111  and  _114
REMARK   47  A    between atoms: _117  and  _119
REMARK   48  A    between atoms: _119  and  _120
REMARK   49  A    between atoms: _119  and  _122
REMARK   50  A    between atoms: _122  and  _123
REMARK   51  A    between atoms: _126  and  _128
REMARK   52  A    between atoms: _128  and  _129
REMARK   53  A    between atoms: _128  and  _131
REMARK   54  A    between atoms: _131  and  _132
REMARK   55  A    between atoms: _137  and  _138
REMARK   56  A    between atoms: _140  and  _142
REMARK   57  A    between atoms: _142  and  _143
REMARK   58  A    between atoms: _142  and  _145
REMARK   59  A    between atoms: _145  and  _146
REMARK   60  A    between atoms: _146  and  _147
REMARK   61  A    between atoms: _152  and  _154
REMARK   62  A    between atoms: _154  and  _155
REMARK   63  A    between atoms: _154  and  _157
REMARK   64  A    between atoms: _157  and  _158
REMARK   65  A    between atoms: _161  and  _163
REMARK   66  A    between atoms: _163  and  _164
REMARK   67  A    between atoms: _163  and  _166
REMARK   68  A    between atoms: _166  and  _167
REMARK   69  A    between atoms: _167  and  _168
REMARK   70  A    between atoms: _171  and  _173
REMARK   71  A    between atoms: _173  and  _174
REMARK   72  A    between atoms: _177  and  _179
REMARK   73  A    between atoms: _179  and  _180
REMARK   74  A    between atoms: _179  and  _182
REMARK   75  A    between atoms: _182  and  _183
REMARK   76  A    between atoms: _183  and  _184
REMARK   77  A    between atoms: _189  and  _191
REMARK   78  A    between atoms: _191  and  _192
REMARK   79  A    between atoms: _191  and  _194
REMARK   80  A    between atoms: _194  and  _195
REMARK   81  A    between atoms: _195  and  _196
REMARK   82  A    between atoms: _196  and  _197
REMARK   83  A    between atoms: _206  and  _208
REMARK   84  A    between atoms: _208  and  _209
REMARK   85  A    between atoms: _212  and  _214
REMARK   86  A    between atoms: _214  and  _215
REMARK   87  A    between atoms: _214  and  _217
REMARK   88  A    between atoms: _217  and  _218
REMARK   89  A    between atoms: _223  and  _224
REMARK   90  A    between atoms: _226  and  _228
REMARK   91  A    between atoms: _228  and  _229
REMARK   92  A    between atoms: _228  and  _231
REMARK   93  A    between atoms: _231  and  _232
REMARK   94  A    between atoms: _235  and  _237
REMARK   95  A    between atoms: _237  and  _238
REMARK   96  A    between atoms: _237  and  _240
REMARK   97  A    between atoms: _240  and  _241
REMARK   98  A    between atoms: _241  and  _242
REMARK   99  A    between atoms: _245  and  _247
REMARK  100  A    between atoms: _247  and  _248
REMARK  101  A    between atoms: _247  and  _250
REMARK  102  A    between atoms: _250  and  _251
REMARK  103  A    between atoms: _254  and  _256
REMARK  104  A    between atoms: _256  and  _257
REMARK  105  A    between atoms: _256  and  _259
REMARK  106  A    between atoms: _259  and  _260
REMARK  107  A    between atoms: _260  and  _261
REMARK  108  A    between atoms: _261  and  _262
REMARK  109  A    between atoms: _271  and  _273
REMARK  110  A    between atoms: _273  and  _274
REMARK  111  A    between atoms: _273  and  _276
REMARK  112  A    between atoms: _276  and  _277
REMARK  113  A    between atoms: _282  and  _284
REMARK  114  A    between atoms: _284  and  _285
REMARK  115  A    between atoms: _284  and  _287
REMARK  116  A    between atoms: _287  and  _288
REMARK  117  A    between atoms: _288  and  _289
REMARK  118  A    between atoms: _289  and  _290
REMARK  119  A    between atoms: _290  and  _291
REMARK  120  A    between atoms: _295  and  _297
REMARK  121  A    between atoms: _297  and  _298
REMARK  122  A    between atoms: _297  and  _300
REMARK  123  A    between atoms: _300  and  _301
REMARK  124  A    between atoms: _301  and  _302
REMARK  125  A    between atoms: _307  and  _309
REMARK  126  A    between atoms: _309  and  _310
REMARK  127  A    between atoms: _309  and  _312
REMARK  128  A    between atoms: _312  and  _313
REMARK  129  A    between atoms: _313  and  _314
REMARK  130  A    between atoms: _319  and  _321
REMARK  131  A    between atoms: _321  and  _322
REMARK  132  A    between atoms: _321  and  _324
REMARK  133  A    between atoms: _324  and  _325
REMARK  134  A    between atoms: _325  and  _326
REMARK  135  A    between atoms: _326  and  _327
REMARK  136  A    between atoms: _336  and  _338
REMARK  137  A    between atoms: _338  and  _339
REMARK  138  A    between atoms: _338  and  _341
REMARK  139  A    between atoms: _341  and  _342
REMARK  140  A    between atoms: _342  and  _343
REMARK  141  A    between atoms: _345  and  _347
REMARK  142  A    between atoms: _347  and  _348
REMARK  143  A    between atoms: _347  and  _350
REMARK  144  A    between atoms: _350  and  _351
REMARK  145  A    between atoms: _361  and  _363
REMARK  146  A    between atoms: _363  and  _364
REMARK  147  A    between atoms: _363  and  _366
REMARK  148  A    between atoms: _366  and  _367
REMARK  149  A    between atoms: _370  and  _372
REMARK  150  A    between atoms: _372  and  _373
REMARK  151  A    between atoms: _372  and  _375
REMARK  152  A    between atoms: _375  and  _376
REMARK  153  A    between atoms: _379  and  _381
REMARK  154  A    between atoms: _381  and  _382
REMARK  155  A    between atoms: _381  and  _384
REMARK  156  A    between atoms: _384  and  _385
REMARK  157  A    between atoms: _388  and  _390
REMARK  158  A    between atoms: _390  and  _391
REMARK  159  A    between atoms: _390  and  _393
REMARK  160  A    between atoms: _393  and  _394
REMARK  161  A    between atoms: _399  and  _400
REMARK  162  A    between atoms: _402  and  _404
REMARK  163  A    between atoms: _404  and  _405
REMARK  164  A    between atoms: _404  and  _407
REMARK  165  A    between atoms: _407  and  _408
REMARK  166  A    between atoms: _408  and  _409
REMARK  167  A    between atoms: _409  and  _410
REMARK  168  A    between atoms: _419  and  _421
REMARK  169  A    between atoms: _421  and  _422
REMARK  170  A    between atoms: _421  and  _424
REMARK  171  A    between atoms: _424  and  _425
REMARK  172  A    between atoms: _431  and  _433
REMARK  173  A    between atoms: _433  and  _434
REMARK  174  A    between atoms: _433  and  _436
REMARK  175  A    between atoms: _436  and  _437
REMARK  176  A    between atoms: _440  and  _442
REMARK  177  A    between atoms: _442  and  _443
REMARK  178  A    between atoms: _442  and  _445
REMARK  179  A    between atoms: _445  and  _446
REMARK  180  A    between atoms: _446  and  _447
REMARK  181  A    between atoms: _447  and  _448
REMARK  182  A    between atoms: _457  and  _459
REMARK  183  A    between atoms: _459  and  _460
REMARK  184  A    between atoms: _459  and  _462
REMARK  185  A    between atoms: _462  and  _463
REMARK  186  A    between atoms: _466  and  _468
REMARK  187  A    between atoms: _468  and  _469
REMARK  188  A    between atoms: _468  and  _471
REMARK  189  A    between atoms: _471  and  _472
REMARK  190  A    between atoms: _475  and  _477
REMARK  191  A    between atoms: _477  and  _478
REMARK  192  A    between atoms: _477  and  _480
REMARK  193  A    between atoms: _480  and  _481
REMARK  194  A    between atoms: _484  and  _486
REMARK  195  A    between atoms: _486  and  _487
REMARK  196  A    between atoms: _486  and  _489
REMARK  197  A    between atoms: _489  and  _490
REMARK  198  A    between atoms: _500  and  _502
REMARK  199  A    between atoms: _502  and  _503
REMARK  200  A    between atoms: _502  and  _505
REMARK  201  A    between atoms: _508  and  _510
REMARK  202  A    between atoms: _510  and  _511
REMARK  203  A    between atoms: _510  and  _513
REMARK  204  A    between atoms: _513  and  _514
REMARK  205  A    between atoms: _516  and  _518
REMARK  206  A    between atoms: _518  and  _519
REMARK  207  A    between atoms: _518  and  _521
REMARK  208  A    between atoms: _524  and  _526
REMARK  209  A    between atoms: _526  and  _527
REMARK  210  A    between atoms: _526  and  _529
REMARK  211  A    between atoms: _529  and  _530
REMARK  212  A    between atoms: _530  and  _531
REMARK  213  A    between atoms: _531  and  _532
REMARK  214  A    between atoms: _541  and  _543
REMARK  215  A    between atoms: _543  and  _544
REMARK  216  A    between atoms: _543  and  _546
REMARK  217  A    between atoms: _546  and  _547
REMARK  218  A    between atoms: _547  and  _548
REMARK  219  A    between atoms: _551  and  _553
REMARK  220  A    between atoms: _553  and  _554
REMARK  221  A    between atoms: _553  and  _556
REMARK  222  A    between atoms: _556  and  _557
REMARK  223  A    between atoms: _557  and  _558
REMARK  224  A    between atoms: _563  and  _565
REMARK  225  A    between atoms: _565  and  _566
REMARK  226  A    between atoms: _565  and  _568
REMARK  227  A    between atoms: _568  and  _569
REMARK  228  A    between atoms: _572  and  _574
REMARK  229  A    between atoms: _574  and  _575
REMARK  230  A    between atoms: _574  and  _577
REMARK  231  A    between atoms: _580  and  _582
REMARK  232  A    between atoms: _582  and  _583
REMARK  233  A    between atoms: _582  and  _585
REMARK  234  A    between atoms: _585  and  _586
REMARK  235  A    between atoms: _588  and  _590
REMARK  236  A    between atoms: _590  and  _591
REMARK  237  A    between atoms: _590  and  _593
REMARK  238  A    between atoms: _596  and  _598
REMARK  239  A    between atoms: _598  and  _599
REMARK  240  A    between atoms: _598  and  _601
REMARK  241  A    between atoms: _601  and  _602
REMARK  242  A    between atoms: _602  and  _603
REMARK  243  A    between atoms: _603  and  _604
REMARK  244  A    between atoms: _613  and  _615
REMARK  245  A    between atoms: _615  and  _616
REMARK  246  A    between atoms: _615  and  _618
REMARK  247  A    between atoms: _618  and  _619
REMARK  248  A    between atoms: _629  and  _631
REMARK  249  A    between atoms: _631  and  _632
REMARK  250  A    between atoms: _631  and  _634
REMARK  251  A    between atoms: _634  and  _635
REMARK  252  A    between atoms: _640  and  _641
REMARK  253  A    between atoms: _643  and  _645
REMARK  254  A    between atoms: _645  and  _646
REMARK  255  A    between atoms: _645  and  _648
REMARK  256  A    between atoms: _648  and  _649
REMARK  257  A    between atoms: _649  and  _650
REMARK  258  A    between atoms: _650  and  _651
REMARK  259  A    between atoms: _661  and  _662
REMARK  260  A    between atoms: _667  and  _669
REMARK  261  A    between atoms: _669  and  _670
REMARK  262  A    between atoms: _672  and  _674
REMARK  263  A    between atoms: _674  and  _675
REMARK  264  A    between atoms: _678  and  _679
REMARK  265  A    between atoms: _684  and  _686
REMARK  266  A    between atoms: _686  and  _687
REMARK  267  A    between atoms: _686  and  _689
REMARK  268  A    between atoms: _689  and  _690
REMARK  269  A    between atoms: _693  and  _695
REMARK  270  A    between atoms: _695  and  _696
REMARK  271  A    between atoms: _695  and  _698
REMARK  272  A    between atoms: _698  and  _699
REMARK  273  A    between atoms: _702  and  _704
REMARK  274  A    between atoms: _704  and  _705
REMARK  275  A    between atoms: _708  and  _710
REMARK  276  A    between atoms: _710  and  _711
REMARK  277  A    between atoms: _710  and  _713
REMARK  278  A    between atoms: _713  and  _714
REMARK  279  A    between atoms: _714  and  _715
REMARK  280  A    between atoms: _720  and  _722
REMARK  281  A    between atoms: _722  and  _723
REMARK  282  A    between atoms: _722  and  _725
REMARK                            x       y       z     vdW  Elec       q    Type
REMARK                         _______ _______ _______ _____ _____    ______ ____
ROOT
ATOM      1  CB  GLN A   1     -20.768  47.560  15.050  0.00  0.00    +0.035 C 
ENDROOT
BRANCH   1   2
ATOM      2  CA  GLN A   1     -21.831  48.578  15.507  0.00  0.00    +0.134 C 
BRANCH   2   3
ATOM      3  N   GLN A   1     -22.678  48.848  14.384  0.00  0.00    -0.239 NA
ATOM      4  H   GLN A   1     -22.410  48.539  13.428  0.00  0.00    +0.142 HD
ENDBRANCH   2   3
BRANCH   2   5
ATOM      5  C   GLN A   1     -21.188  49.811  16.115  0.00  0.00    +0.224 C 
ATOM      6  O   GLN A   1     -20.898  49.847  17.305  0.00  0.00    -0.287 OA
ENDBRANCH   2   5
ENDBRANCH   1   2
BRANCH   1   7
ATOM      7  CG  GLN A   1     -21.392  46.202  14.957  0.00  0.00    +0.087 C 
BRANCH   7   8
ATOM      8  CD  GLN A   1     -20.375  45.078  14.652  0.00  0.00    +0.219 C 
ATOM      9  OE1 GLN A   1     -19.191  45.151  15.036  0.00  0.00    -0.275 OA
ATOM     10  NE2 GLN A   1     -20.838  44.053  13.936  0.00  0.00    -0.329 N 
ATOM     11 HE21 GLN A   1     -20.203  43.271  13.676  0.00  0.00    +0.145 HD
ATOM     12 HE22 GLN A   1     -21.834  44.035  13.638  0.00  0.00    +0.145 HD
ENDBRANCH   7   8
ENDBRANCH   1   7
TORSDOF 5
REMARK  Name = ../refined-set-2016/4w97/4w97_pocket.pdb
REMARK  282 active torsions:
REMARK  status: ('A' for Active; 'I' for Inactive)
REMARK    1  A    between atoms: _1  and  _3
REMARK    2  A    between atoms: _3  and  _4
REMARK    3  A    between atoms: _3  and  _6
REMARK    4  A    between atoms: _6  and  _7
REMARK    5  A    between atoms: _10  and  _12
REMARK    6  A    between atoms: _12  and  _13
REMARK    7  A    between atoms: _12  and  _15
REMARK    8  A    between atoms: _15  and  _16
REMARK    9  A    between atoms: _22  and  _24
REMARK   10  A    between atoms: _24  and  _25
REMARK   11  A    between atoms: _24  and  _27
REMARK   12  A    between atoms: _27  and  _28
REMARK   13  A    between atoms: _31  and  _33
REMARK   14  A    between atoms: _33  and  _34
REMARK   15  A    between atoms: _33  and  _36
REMARK   16  A    between atoms: _36  and  _37
REMARK   17  A    between atoms: _40  and  _42
REMARK   18  A    between atoms: _42  and  _43
REMARK   19  A    between atoms: _42  and  _45
REMARK   20  A    between atoms: _45  and  _46
REMARK   21  A    between atoms: _52  and  _54
REMARK   22  A    between atoms: _54  and  _55
REMARK   23  A    between atoms: _54  and  _57
REMARK   24  A    between atoms: _57  and  _58
REMARK   25  A    between atoms: _63  and  _64
REMARK   26  A    between atoms: _66  and  _68
REMARK   27  A    between atoms: _68  and  _69
REMARK   28  A    between atoms: _68  and  _71
REMARK   29  A    between atoms: _71  and  _72
REMARK   30  A    between atoms: _74  and  _76
REMARK   31  A    between atoms: _76  and  _77
REMARK   32  A    between atoms: _80  and  _82
REMARK   33  A    between atoms: _82  and  _83
REMARK   34  A    between atoms: _82  and  _85
REMARK   35  A    between atoms: _85  and  _86
REMARK   36  A    between atoms: _89  and  _91
REMARK   37  A    between atoms: _91  and  _92
REMARK   38  A    between atoms: _91  and  _94
REMARK   39  A    between atoms: _94  and  _95
REMARK   40  A    between atoms: _95  and  _96
REMARK   41  A    between atoms: _101  and  _103
REMARK   42  A    between atoms: _103  and  _104
REMARK   43  A    between atoms: _103  and  _106
REMARK   44  A    between atoms: _109  and  _111
REMARK   45  A    between atoms: _111  and  _112
REMARK   46  A    between atoms: _111  and  _114
REMARK   47  A    between atoms: _117  and  _119
REMARK   48  A    between atoms: _119  and  _120
REMARK   49  A    between atoms: _119  and  _122
REMARK   50  A    between atoms: _122  and  _123
REMARK   51  A    between atoms: _126  and  _128
REMARK   52  A    between atoms: _128  and  _129
REMARK   53  A    between atoms: _128  and  _131
REMARK   54  A    between atoms: _131  and  _132
REMARK   55  A    between atoms: _137  and  _138
REMARK   56  A    between atoms: _140  and  _142
REMARK   57  A    between atoms: _142  and  _143
REMARK   58  A    between atoms: _142  and  _145
REMARK   59  A    between atoms: _145  and  _146
REMARK   60  A    between atoms: _146  and  _147
REMARK   61  A    between atoms: _152  and  _154
REMARK   62  A    between atoms: _154  and  _155
REMARK   63  A    between atoms: _154  and  _157
REMARK   64  A    between atoms: _157  and  _158
REMARK   65  A    between atoms: _161  and  _163
REMARK   66  A    between atoms: _163  and  _164
REMARK   67  A    between atoms: _163  and  _166
REMARK   68  A    between atoms: _166  and  _167
REMARK   69  A    between atoms: _167  and  _168
REMARK   70  A    between atoms: _171  and  _173
REMARK   71  A    between atoms: _173  and  _174
REMARK   72  A    between atoms: _177  and  _179
REMARK   73  A    between atoms: _179  and  _180
REMARK   74  A    between atoms: _179  and  _182
REMARK   75  A    between atoms: _182  and  _183
REMARK   76  A    between atoms: _183  and  _184
REMARK   77  A    between atoms: _189  and  _191
REMARK   78  A    between atoms: _191  and  _192
REMARK   79  A    between atoms: _191  and  _194
REMARK   80  A    between atoms: _194  and  _195
REMARK   81  A    between atoms: _195  and  _196
REMARK   82  A    between atoms: _196  and  _197
REMARK   83  A    between atoms: _206  and  _208
REMARK   84  A    between atoms: _208  and  _209
REMARK   85  A    between atoms: _212  and  _214
REMARK   86  A    between atoms: _214  and  _215
REMARK   87  A    between atoms: _214  and  _217
REMARK   88  A    between atoms: _217  and  _218
REMARK   89  A    between atoms: _223  and  _224
REMARK   90  A    between atoms: _226  and  _228
REMARK   91  A    between atoms: _228  and  _229
REMARK   92  A    between atoms: _228  and  _231
REMARK   93  A    between atoms: _231  and  _232
REMARK   94  A    between atoms: _235  and  _237
REMARK   95  A    between atoms: _237  and  _238
REMARK   96  A    between atoms: _237  and  _240
REMARK   97  A    between atoms: _240  and  _241
REMARK   98  A    between atoms: _241  and  _242
REMARK   99  A    between atoms: _245  and  _247
REMARK  100  A    between atoms: _247  and  _248
REMARK  101  A    between atoms: _247  and  _250
REMARK  102  A    between atoms: _250  and  _251
REMARK  103  A    between atoms: _254  and  _256
REMARK  104  A    between atoms: _256  and  _257
REMARK  105  A    between atoms: _256  and  _259
REMARK  106  A    between atoms: _259  and  _260
REMARK  107  A    between atoms: _260  and  _261
REMARK  108  A    between atoms: _261  and  _262
REMARK  109  A    between atoms: _271  and  _273
REMARK  110  A    between atoms: _273  and  _274
REMARK  111  A    between atoms: _273  and  _276
REMARK  112  A    between atoms: _276  and  _277
REMARK  113  A    between atoms: _282  and  _284
REMARK  114  A    between atoms: _284  and  _285
REMARK  115  A    between atoms: _284  and  _287
REMARK  116  A    between atoms: _287  and  _288
REMARK  117  A    between atoms: _288  and  _289
REMARK  118  A    between atoms: _289  and  _290
REMARK  119  A    between atoms: _290  and  _291
REMARK  120  A    between atoms: _295  and  _297
REMARK  121  A    between atoms: _297  and  _298
REMARK  122  A    between atoms: _297  and  _300
REMARK  123  A    between atoms: _300  and  _301
REMARK  124  A    between atoms: _301  and  _302
REMARK  125  A    between atoms: _307  and  _309
REMARK  126  A    between atoms: _309  and  _310
REMARK  127  A    between atoms: _309  and  _312
REMARK  128  A    between atoms: _312  and  _313
REMARK  129  A    between atoms: _313  and  _314
REMARK  130  A    between atoms: _319  and  _321
REMARK  131  A    between atoms: _321  and  _322
REMARK  132  A    between atoms: _321  and  _324
REMARK  133  A    between atoms: _324  and  _325
REMARK  134  A    between atoms: _325  and  _326
REMARK  135  A    between atoms: _326  and  _327
REMARK  136  A    between atoms: _336  and  _338
REMARK  137  A    between atoms: _338  and  _339
REMARK  138  A    between atoms: _338  and  _341
REMARK  139  A    between atoms: _341  and  _342
REMARK  140  A    between atoms: _342  and  _343
REMARK  141  A    between atoms: _345  and  _347
REMARK  142  A    between atoms: _347  and  _348
REMARK  143  A    between atoms: _347  and  _350
REMARK  144  A    between atoms: _350  and  _351
REMARK  145  A    between atoms: _361  and  _363
REMARK  146  A    between atoms: _363  and  _364
REMARK  147  A    between atoms: _363  and  _366
REMARK  148  A    between atoms: _366  and  _367
REMARK  149  A    between atoms: _370  and  _372
REMARK  150  A    between atoms: _372  and  _373
REMARK  151  A    between atoms: _372  and  _375
REMARK  152  A    between atoms: _375  and  _376
REMARK  153  A    between atoms: _379  and  _381
REMARK  154  A    between atoms: _381  and  _382
REMARK  155  A    between atoms: _381  and  _384
REMARK  156  A    between atoms: _384  and  _385
REMARK  157  A    between atoms: _388  and  _390
REMARK  158  A    between atoms: _390  and  _391
REMARK  159  A    between atoms: _390  and  _393
REMARK  160  A    between atoms: _393  and  _394
REMARK  161  A    between atoms: _399  and  _400
REMARK  162  A    between atoms: _402  and  _404
REMARK  163  A    between atoms: _404  and  _405
REMARK  164  A    between atoms: _404  and  _407
REMARK  165  A    between atoms: _407  and  _408
REMARK  166  A    between atoms: _408  and  _409
REMARK  167  A    between atoms: _409  and  _410
REMARK  168  A    between atoms: _419  and  _421
REMARK  169  A    between atoms: _421  and  _422
REMARK  170  A    between atoms: _421  and  _424
REMARK  171  A    between atoms: _424  and  _425
REMARK  172  A    between atoms: _431  and  _433
REMARK  173  A    between atoms: _433  and  _434
REMARK  174  A    between atoms: _433  and  _436
REMARK  175  A    between atoms: _436  and  _437
REMARK  176  A    between atoms: _440  and  _442
REMARK  177  A    between atoms: _442  and  _443
REMARK  178  A    between atoms: _442  and  _445
REMARK  179  A    between atoms: _445  and  _446
REMARK  180  A    between atoms: _446  and  _447
REMARK  181  A    between atoms: _447  and  _448
REMARK  182  A    between atoms: _457  and  _459
REMARK  183  A    between atoms: _459  and  _460
REMARK  184  A    between atoms: _459  and  _462
REMARK  185  A    between atoms: _462  and  _463
REMARK  186  A    between atoms: _466  and  _468
REMARK  187  A    between atoms: _468  and  _469
REMARK  188  A    between atoms: _468  and  _471
REMARK  189  A    between atoms: _471  and  _472
REMARK  190  A    between atoms: _475  and  _477
REMARK  191  A    between atoms: _477  and  _478
REMARK  192  A    between atoms: _477  and  _480
REMARK  193  A    between atoms: _480  and  _481
REMARK  194  A    between atoms: _484  and  _486
REMARK  195  A    between atoms: _486  and  _487
REMARK  196  A    between atoms: _486  and  _489
REMARK  197  A    between atoms: _489  and  _490
REMARK  198  A    between atoms: _500  and  _502
REMARK  199  A    between atoms: _502  and  _503
REMARK  200  A    between atoms: _502  and  _505
REMARK  201  A    between atoms: _508  and  _510
REMARK  202  A    between atoms: _510  and  _511
REMARK  203  A    between atoms: _510  and  _513
REMARK  204  A    between atoms: _513  and  _514
REMARK  205  A    between atoms: _516  and  _518
REMARK  206  A    between atoms: _518  and  _519
REMARK  207  A    between atoms: _518  and  _521
REMARK  208  A    between atoms: _524  and  _526
REMARK  209  A    between atoms: _526  and  _527
REMARK  210  A    between atoms: _526  and  _529
REMARK  211  A    between atoms: _529  and  _530
REMARK  212  A    between atoms: _530  and  _531
REMARK  213  A    between atoms: _531  and  _532
REMARK  214  A    between atoms: _541  and  _543
REMARK  215  A    between atoms: _543  and  _544
REMARK  216  A    between atoms: _543  and  _546
REMARK  217  A    between atoms: _546  and  _547
REMARK  218  A    between atoms: _547  and  _548
REMARK  219  A    between atoms: _551  and  _553
REMARK  220  A    between atoms: _553  and  _554
REMARK  221  A    between atoms: _553  and  _556
REMARK  222  A    between atoms: _556  and  _557
REMARK  223  A    between atoms: _557  and  _558
REMARK  224  A    between atoms: _563  and  _565
REMARK  225  A    between atoms: _565  and  _566
REMARK  226  A    between atoms: _565  and  _568
REMARK  227  A    between atoms: _568  and  _569
REMARK  228  A    between atoms: _572  and  _574
REMARK  229  A    between atoms: _574  and  _575
REMARK  230  A    between atoms: _574  and  _577
REMARK  231  A    between atoms: _580  and  _582
REMARK  232  A    between atoms: _582  and  _583
REMARK  233  A    between atoms: _582  and  _585
REMARK  234  A    between atoms: _585  and  _586
REMARK  235  A    between atoms: _588  and  _590
REMARK  236  A    between atoms: _590  and  _591
REMARK  237  A    between atoms: _590  and  _593
REMARK  238  A    between atoms: _596  and  _598
REMARK  239  A    between atoms: _598  and  _599
REMARK  240  A    between atoms: _598  and  _601
REMARK  241  A    between atoms: _601  and  _602
REMARK  242  A    between atoms: _602  and  _603
REMARK  243  A    between atoms: _603  and  _604
REMARK  244  A    between atoms: _613  and  _615
REMARK  245  A    between atoms: _615  and  _616
REMARK  246  A    between atoms: _615  and  _618
REMARK  247  A    between atoms: _618  and  _619
REMARK  248  A    between atoms: _629  and  _631
REMARK  249  A    between atoms: _631  and  _632
REMARK  250  A    between atoms: _631  and  _634
REMARK  251  A    between atoms: _634  and  _635
REMARK  252  A    between atoms: _640  and  _641
REMARK  253  A    between atoms: _643  and  _645
REMARK  254  A    between atoms: _645  and  _646
REMARK  255  A    between atoms: _645  and  _648
REMARK  256  A    between atoms: _648  and  _649
REMARK  257  A    between atoms: _649  and  _650
REMARK  258  A    between atoms: _650  and  _651
REMARK  259  A    between atoms: _661  and  _662
REMARK  260  A    between atoms: _667  and  _669
REMARK  261  A    between atoms: _669  and  _670
REMARK  262  A    between atoms: _672  and  _674
REMARK  263  A    between atoms: _674  and  _675
REMARK  264  A    between atoms: _678  and  _679
REMARK  265  A    between atoms: _684  and  _686
REMARK  266  A    between atoms: _686  and  _687
REMARK  267  A    between atoms: _686  and  _689
REMARK  268  A    between atoms: _689  and  _690
REMARK  269  A    between atoms: _693  and  _695
REMARK  270  A    between atoms: _695  and  _696
REMARK  271  A    between atoms: _695  and  _698
REMARK  272  A    between atoms: _698  and  _699
REMARK  273  A    between atoms: _702  and  _704
REMARK  274  A    between atoms: _704  and  _705
REMARK  275  A    between atoms: _708  and  _710
REMARK  276  A    between atoms: _710  and  _711
REMARK  277  A    between atoms: _710  and  _713
REMARK  278  A    between atoms: _713  and  _714
REMARK  279  A    between atoms: _714  and  _715
REMARK  280  A    between atoms: _720  and  _722
REMARK  281  A    between atoms: _722  and  _723
REMARK  282  A    between atoms: _722  and  _725
REMARK                            x       y       z     vdW  Elec       q    Type
REMARK                         _______ _______ _______ _____ _____    ______ ____
ROOT
ATOM      1  CA  ASP A   1     -19.969  38.424  19.270  0.00  0.00    +0.144 C 
ENDROOT
BRANCH   1   2
ATOM      2  N   ASP A   1     -21.184  37.632  19.301  0.00  0.00    -0.239 NA
ATOM      3  H   ASP A   1     -21.388  36.998  20.100  0.00  0.00    +0.142 HD
ENDBRANCH   1   2
BRANCH   1   4
ATOM      4  C   ASP A   1     -19.006  37.870  18.252  0.00  0.00    +0.225 C 
ATOM      5  O   ASP A   1     -18.436  38.683  17.485  0.00  0.00    -0.287 OA
ENDBRANCH   1   4
BRANCH   1   6
ATOM      6  CB  ASP A   1     -19.298  38.491  20.645  0.00  0.00    +0.139 C 
BRANCH   6   7
ATOM      7  CG  ASP A   1     -20.074  39.370  21.612  0.00  0.00    +0.367 C 
ATOM      8  OD2 ASP A   1     -19.702  39.367  22.765  0.00  0.00    -0.246 OA
ATOM      9  OD1 ASP A   1     -21.064  40.047  21.210  0.00  0.00    -0.246 OA
ENDBRANCH   6   7
ENDBRANCH   1   6
TORSDOF 4
REMARK  Name = ../refined-set-2016/4w97/4w97_pocket.pdb
REMARK  282 active torsions:
REMARK  status: ('A' for Active; 'I' for Inactive)
REMARK    1  A    between atoms: _1  and  _3
REMARK    2  A    between atoms: _3  and  _4
REMARK    3  A    between atoms: _3  and  _6
REMARK    4  A    between atoms: _6  and  _7
REMARK    5  A    between atoms: _10  and  _12
REMARK    6  A    between atoms: _12  and  _13
REMARK    7  A    between atoms: _12  and  _15
REMARK    8  A    between atoms: _15  and  _16
REMARK    9  A    between atoms: _22  and  _24
REMARK   10  A    between atoms: _24  and  _25
REMARK   11  A    between atoms: _24  and  _27
REMARK   12  A    between atoms: _27  and  _28
REMARK   13  A    between atoms: _31  and  _33
REMARK   14  A    between atoms: _33  and  _34
REMARK   15  A    between atoms: _33  and  _36
REMARK   16  A    between atoms: _36  and  _37
REMARK   17  A    between atoms: _40  and  _42
REMARK   18  A    between atoms: _42  and  _43
REMARK   19  A    between atoms: _42  and  _45
REMARK   20  A    between atoms: _45  and  _46
REMARK   21  A    between atoms: _52  and  _54
REMARK   22  A    between atoms: _54  and  _55
REMARK   23  A    between atoms: _54  and  _57
REMARK   24  A    between atoms: _57  and  _58
REMARK   25  A    between atoms: _63  and  _64
REMARK   26  A    between atoms: _66  and  _68
REMARK   27  A    between atoms: _68  and  _69
REMARK   28  A    between atoms: _68  and  _71
REMARK   29  A    between atoms: _71  and  _72
REMARK   30  A    between atoms: _74  and  _76
REMARK   31  A    between atoms: _76  and  _77
REMARK   32  A    between atoms: _80  and  _82
REMARK   33  A    between atoms: _82  and  _83
REMARK   34  A    between atoms: _82  and  _85
REMARK   35  A    between atoms: _85  and  _86
REMARK   36  A    between atoms: _89  and  _91
REMARK   37  A    between atoms: _91  and  _92
REMARK   38  A    between atoms: _91  and  _94
REMARK   39  A    between atoms: _94  and  _95
REMARK   40  A    between atoms: _95  and  _96
REMARK   41  A    between atoms: _101  and  _103
REMARK   42  A    between atoms: _103  and  _104
REMARK   43  A    between atoms: _103  and  _106
REMARK   44  A    between atoms: _109  and  _111
REMARK   45  A    between atoms: _111  and  _112
REMARK   46  A    between atoms: _111  and  _114
REMARK   47  A    between atoms: _117  and  _119
REMARK   48  A    between atoms: _119  and  _120
REMARK   49  A    between atoms: _119  and  _122
REMARK   50  A    between atoms: _122  and  _123
REMARK   51  A    between atoms: _126  and  _128
REMARK   52  A    between atoms: _128  and  _129
REMARK   53  A    between atoms: _128  and  _131
REMARK   54  A    between atoms: _131  and  _132
REMARK   55  A    between atoms: _137  and  _138
REMARK   56  A    between atoms: _140  and  _142
REMARK   57  A    between atoms: _142  and  _143
REMARK   58  A    between atoms: _142  and  _145
REMARK   59  A    between atoms: _145  and  _146
REMARK   60  A    between atoms: _146  and  _147
REMARK   61  A    between atoms: _152  and  _154
REMARK   62  A    between atoms: _154  and  _155
REMARK   63  A    between atoms: _154  and  _157
REMARK   64  A    between atoms: _157  and  _158
REMARK   65  A    between atoms: _161  and  _163
REMARK   66  A    between atoms: _163  and  _164
REMARK   67  A    between atoms: _163  and  _166
REMARK   68  A    between atoms: _166  and  _167
REMARK   69  A    between atoms: _167  and  _168
REMARK   70  A    between atoms: _171  and  _173
REMARK   71  A    between atoms: _173  and  _174
REMARK   72  A    between atoms: _177  and  _179
REMARK   73  A    between atoms: _179  and  _180
REMARK   74  A    between atoms: _179  and  _182
REMARK   75  A    between atoms: _182  and  _183
REMARK   76  A    between atoms: _183  and  _184
REMARK   77  A    between atoms: _189  and  _191
REMARK   78  A    between atoms: _191  and  _192
REMARK   79  A    between atoms: _191  and  _194
REMARK   80  A    between atoms: _194  and  _195
REMARK   81  A    between atoms: _195  and  _196
REMARK   82  A    between atoms: _196  and  _197
REMARK   83  A    between atoms: _206  and  _208
REMARK   84  A    between atoms: _208  and  _209
REMARK   85  A    between atoms: _212  and  _214
REMARK   86  A    between atoms: _214  and  _215
REMARK   87  A    between atoms: _214  and  _217
REMARK   88  A    between atoms: _217  and  _218
REMARK   89  A    between atoms: _223  and  _224
REMARK   90  A    between atoms: _226  and  _228
REMARK   91  A    between atoms: _228  and  _229
REMARK   92  A    between atoms: _228  and  _231
REMARK   93  A    between atoms: _231  and  _232
REMARK   94  A    between atoms: _235  and  _237
REMARK   95  A    between atoms: _237  and  _238
REMARK   96  A    between atoms: _237  and  _240
REMARK   97  A    between atoms: _240  and  _241
REMARK   98  A    between atoms: _241  and  _242
REMARK   99  A    between atoms: _245  and  _247
REMARK  100  A    between atoms: _247  and  _248
REMARK  101  A    between atoms: _247  and  _250
REMARK  102  A    between atoms: _250  and  _251
REMARK  103  A    between atoms: _254  and  _256
REMARK  104  A    between atoms: _256  and  _257
REMARK  105  A    between atoms: _256  and  _259
REMARK  106  A    between atoms: _259  and  _260
REMARK  107  A    between atoms: _260  and  _261
REMARK  108  A    between atoms: _261  and  _262
REMARK  109  A    between atoms: _271  and  _273
REMARK  110  A    between atoms: _273  and  _274
REMARK  111  A    between atoms: _273  and  _276
REMARK  112  A    between atoms: _276  and  _277
REMARK  113  A    between atoms: _282  and  _284
REMARK  114  A    between atoms: _284  and  _285
REMARK  115  A    between atoms: _284  and  _287
REMARK  116  A    between atoms: _287  and  _288
REMARK  117  A    between atoms: _288  and  _289
REMARK  118  A    between atoms: _289  and  _290
REMARK  119  A    between atoms: _290  and  _291
REMARK  120  A    between atoms: _295  and  _297
REMARK  121  A    between atoms: _297  and  _298
REMARK  122  A    between atoms: _297  and  _300
REMARK  123  A    between atoms: _300  and  _301
REMARK  124  A    between atoms: _301  and  _302
REMARK  125  A    between atoms: _307  and  _309
REMARK  126  A    between atoms: _309  and  _310
REMARK  127  A    between atoms: _309  and  _312
REMARK  128  A    between atoms: _312  and  _313
REMARK  129  A    between atoms: _313  and  _314
REMARK  130  A    between atoms: _319  and  _321
REMARK  131  A    between atoms: _321  and  _322
REMARK  132  A    between atoms: _321  and  _324
REMARK  133  A    between atoms: _324  and  _325
REMARK  134  A    between atoms: _325  and  _326
REMARK  135  A    between atoms: _326  and  _327
REMARK  136  A    between atoms: _336  and  _338
REMARK  137  A    between atoms: _338  and  _339
REMARK  138  A    between atoms: _338  and  _341
REMARK  139  A    between atoms: _341  and  _342
REMARK  140  A    between atoms: _342  and  _343
REMARK  141  A    between atoms: _345  and  _347
REMARK  142  A    between atoms: _347  and  _348
REMARK  143  A    between atoms: _347  and  _350
REMARK  144  A    between atoms: _350  and  _351
REMARK  145  A    between atoms: _361  and  _363
REMARK  146  A    between atoms: _363  and  _364
REMARK  147  A    between atoms: _363  and  _366
REMARK  148  A    between atoms: _366  and  _367
REMARK  149  A    between atoms: _370  and  _372
REMARK  150  A    between atoms: _372  and  _373
REMARK  151  A    between atoms: _372  and  _375
REMARK  152  A    between atoms: _375  and  _376
REMARK  153  A    between atoms: _379  and  _381
REMARK  154  A    between atoms: _381  and  _382
REMARK  155  A    between atoms: _381  and  _384
REMARK  156  A    between atoms: _384  and  _385
REMARK  157  A    between atoms: _388  and  _390
REMARK  158  A    between atoms: _390  and  _391
REMARK  159  A    between atoms: _390  and  _393
REMARK  160  A    between atoms: _393  and  _394
REMARK  161  A    between atoms: _399  and  _400
REMARK  162  A    between atoms: _402  and  _404
REMARK  163  A    between atoms: _404  and  _405
REMARK  164  A    between atoms: _404  and  _407
REMARK  165  A    between atoms: _407  and  _408
REMARK  166  A    between atoms: _408  and  _409
REMARK  167  A    between atoms: _409  and  _410
REMARK  168  A    between atoms: _419  and  _421
REMARK  169  A    between atoms: _421  and  _422
REMARK  170  A    between atoms: _421  and  _424
REMARK  171  A    between atoms: _424  and  _425
REMARK  172  A    between atoms: _431  and  _433
REMARK  173  A    between atoms: _433  and  _434
REMARK  174  A    between atoms: _433  and  _436
REMARK  175  A    between atoms: _436  and  _437
REMARK  176  A    between atoms: _440  and  _442
REMARK  177  A    between atoms: _442  and  _443
REMARK  178  A    between atoms: _442  and  _445
REMARK  179  A    between atoms: _445  and  _446
REMARK  180  A    between atoms: _446  and  _447
REMARK  181  A    between atoms: _447  and  _448
REMARK  182  A    between atoms: _457  and  _459
REMARK  183  A    between atoms: _459  and  _460
REMARK  184  A    between atoms: _459  and  _462
REMARK  185  A    between atoms: _462  and  _463
REMARK  186  A    between atoms: _466  and  _468
REMARK  187  A    between atoms: _468  and  _469
REMARK  188  A    between atoms: _468  and  _471
REMARK  189  A    between atoms: _471  and  _472
REMARK  190  A    between atoms: _475  and  _477
REMARK  191  A    between atoms: _477  and  _478
REMARK  192  A    between atoms: _477  and  _480
REMARK  193  A    between atoms: _480  and  _481
REMARK  194  A    between atoms: _484  and  _486
REMARK  195  A    between atoms: _486  and  _487
REMARK  196  A    between atoms: _486  and  _489
REMARK  197  A    between atoms: _489  and  _490
REMARK  198  A    between atoms: _500  and  _502
REMARK  199  A    between atoms: _502  and  _503
REMARK  200  A    between atoms: _502  and  _505
REMARK  201  A    between atoms: _508  and  _510
REMARK  202  A    between atoms: _510  and  _511
REMARK  203  A    between atoms: _510  and  _513
REMARK  204  A    between atoms: _513  and  _514
REMARK  205  A    between atoms: _516  and  _518
REMARK  206  A    between atoms: _518  and  _519
REMARK  207  A    between atoms: _518  and  _521
REMARK  208  A    between atoms: _524  and  _526
REMARK  209  A    between atoms: _526  and  _527
REMARK  210  A    between atoms: _526  and  _529
REMARK  211  A    between atoms: _529  and  _530
REMARK  212  A    between atoms: _530  and  _531
REMARK  213  A    between atoms: _531  and  _532
REMARK  214  A    between atoms: _541  and  _543
REMARK  215  A    between atoms: _543  and  _544
REMARK  216  A    between atoms: _543  and  _546
REMARK  217  A    between atoms: _546  and  _547
REMARK  218  A    between atoms: _547  and  _548
REMARK  219  A    between atoms: _551  and  _553
REMARK  220  A    between atoms: _553  and  _554
REMARK  221  A    between atoms: _553  and  _556
REMARK  222  A    between atoms: _556  and  _557
REMARK  223  A    between atoms: _557  and  _558
REMARK  224  A    between atoms: _563  and  _565
REMARK  225  A    between atoms: _565  and  _566
REMARK  226  A    between atoms: _565  and  _568
REMARK  227  A    between atoms: _568  and  _569
REMARK  228  A    between atoms: _572  and  _574
REMARK  229  A    between atoms: _574  and  _575
REMARK  230  A    between atoms: _574  and  _577
REMARK  231  A    between atoms: _580  and  _582
REMARK  232  A    between atoms: _582  and  _583
REMARK  233  A    between atoms: _582  and  _585
REMARK  234  A    between atoms: _585  and  _586
REMARK  235  A    between atoms: _588  and  _590
REMARK  236  A    between atoms: _590  and  _591
REMARK  237  A    between atoms: _590  and  _593
REMARK  238  A    between atoms: _596  and  _598
REMARK  239  A    between atoms: _598  and  _599
REMARK  240  A    between atoms: _598  and  _601
REMARK  241  A    between atoms: _601  and  _602
REMARK  242  A    between atoms: _602  and  _603
REMARK  243  A    between atoms: _603  and  _604
REMARK  244  A    between atoms: _613  and  _615
REMARK  245  A    between atoms: _615  and  _616
REMARK  246  A    between atoms: _615  and  _618
REMARK  247  A    between atoms: _618  and  _619
REMARK  248  A    between atoms: _629  and  _631
REMARK  249  A    between atoms: _631  and  _632
REMARK  250  A    between atoms: _631  and  _634
REMARK  251  A    between atoms: _634  and  _635
REMARK  252  A    between atoms: _640  and  _641
REMARK  253  A    between atoms: _643  and  _645
REMARK  254  A    between atoms: _645  and  _646
REMARK  255  A    between atoms: _645  and  _648
REMARK  256  A    between atoms: _648  and  _649
REMARK  257  A    between atoms: _649  and  _650
REMARK  258  A    between atoms: _650  and  _651
REMARK  259  A    between atoms: _661  and  _662
REMARK  260  A    between atoms: _667  and  _669
REMARK  261  A    between atoms: _669  and  _670
REMARK  262  A    between atoms: _672  and  _674
REMARK  263  A    between atoms: _674  and  _675
REMARK  264  A    between atoms: _678  and  _679
REMARK  265  A    between atoms: _684  and  _686
REMARK  266  A    between atoms: _686  and  _687
REMARK  267  A    between atoms: _686  and  _689
REMARK  268  A    between atoms: _689  and  _690
REMARK  269  A    between atoms: _693  and  _695
REMARK  270  A    between atoms: _695  and  _696
REMARK  271  A    between atoms: _695  and  _698
REMARK  272  A    between atoms: _698  and  _699
REMARK  273  A    between atoms: _702  and  _704
REMARK  274  A    between atoms: _704  and  _705
REMARK  275  A    between atoms: _708  and  _710
REMARK  276  A    between atoms: _710  and  _711
REMARK  277  A    between atoms: _710  and  _713
REMARK  278  A    between atoms: _713  and  _714
REMARK  279  A    between atoms: _714  and  _715
REMARK  280  A    between atoms: _720  and  _722
REMARK  281  A    between atoms: _722  and  _723
REMARK  282  A    between atoms: _722  and  _725
REMARK                            x       y       z     vdW  Elec       q    Type
REMARK                         _______ _______ _______ _____ _____    ______ ____
ROOT
ATOM      1  CA  TYR A   6     -12.585  41.561   7.325  0.00  0.00    +0.153 C 
ENDROOT
BRANCH   1   3
ATOM      2  C   TRP A   5     -11.173  42.670   8.987  0.00  0.00    +0.241 C 
ATOM      3  N   TYR A   6     -12.347  42.110   8.661  0.00  0.00    -0.297 N 
ATOM      4  H   TYR A   6     -13.104  42.065   9.372  0.00  0.00    +0.150 HD
ATOM      5  O   TRP A   5     -10.230  42.791   8.200  0.00  0.00    -0.273 OA
BRANCH   2   6
ATOM      6  CA  TRP A   5     -10.974  43.103  10.443  0.00  0.00    +0.153 C 
BRANCH   6   9
ATOM      7  C   ARG A   4     -12.457  44.651  11.582  0.00  0.00    +0.241 C 
ATOM      8  O   ARG A   4     -11.664  45.571  11.449  0.00  0.00    -0.273 OA
ATOM      9  N   TRP A   5     -12.242  43.436  11.097  0.00  0.00    -0.297 N 
ATOM     10  H   TRP A   5     -12.982  42.711  11.182  0.00  0.00    +0.150 HD
BRANCH   7  11
ATOM     11  CA  ARG A   4     -13.770  44.947  12.266  0.00  0.00    +0.149 C 
BRANCH  11  13
ATOM     12  C   VAL A   3     -15.399  44.053  10.714  0.00  0.00    +0.241 C 
ATOM     13  N   ARG A   4     -14.824  43.982  11.923  0.00  0.00    -0.297 N 
ATOM     14  H   ARG A   4     -15.119  43.256  12.607  0.00  0.00    +0.150 HD
ATOM     15  O   VAL A   3     -15.007  44.843   9.845  0.00  0.00    -0.273 OA
BRANCH  12  16
ATOM     16  CA  VAL A   3     -16.557  43.065  10.404  0.00  0.00    +0.149 C 
BRANCH  16  18
ATOM     17  C   SER A   2     -15.387  41.084  11.273  0.00  0.00    +0.243 C 
ATOM     18  N   VAL A   3     -16.481  41.877  11.278  0.00  0.00    -0.297 N 
ATOM     19  H   VAL A   3     -17.279  41.648  11.905  0.00  0.00    +0.150 HD
ATOM     20  O   SER A   2     -14.417  41.290  10.553  0.00  0.00    -0.273 OA
BRANCH  17  21
ATOM     21  CA  SER A   2     -15.296  39.960  12.322  0.00  0.00    +0.178 C 
BRANCH  21  24
ATOM     22  C   VAL A   1     -16.165  41.239  14.186  0.00  0.00    +0.238 C 
ATOM     23  O   VAL A   1     -15.241  42.044  14.048  0.00  0.00    -0.274 OA
ATOM     24  N   SER A   2     -16.274  40.152  13.407  0.00  0.00    -0.295 N 
ATOM     25  H   SER A   2     -17.033  39.459  13.566  0.00  0.00    +0.150 HD
BRANCH  22  26
ATOM     26  CA  VAL A   1     -17.235  41.468  15.282  0.00  0.00    +0.145 C 
BRANCH  26  27
ATOM     27  CB  VAL A   1     -16.612  41.340  16.709  0.00  0.00    +0.025 C 
ATOM     28  CG2 VAL A   1     -15.814  42.638  17.087  0.00  0.00    +0.002 C 
ATOM     29  CG1 VAL A   1     -15.718  40.217  16.802  0.00  0.00    +0.002 C 
ENDBRANCH  26  27
BRANCH  26  30
ATOM     30  N   VAL A   1     -18.367  40.523  15.101  0.00  0.00    -0.238 NA
ATOM     31  H   VAL A   1     -18.493  39.693  15.714  0.00  0.00    +0.142 HD
ENDBRANCH  26  30
ENDBRANCH  22  26
ENDBRANCH  21  24
BRANCH  21  32
ATOM     32  CB  SER A   2     -15.444  38.569  11.629  0.00  0.00    +0.166 C 
BRANCH  32  33
ATOM     33  OG  SER A   2     -16.610  38.556  10.842  0.00  0.00    -0.380 OA
ATOM     34  H   SER A   2     -17.398  38.723  11.418  0.00  0.00    +0.211 HD
ENDBRANCH  32  33
ENDBRANCH  21  32
ENDBRANCH  17  21
ENDBRANCH  16  18
BRANCH  16  35
ATOM     35  CB  VAL A   3     -17.935  43.769  10.532  0.00  0.00    +0.027 C 
ATOM     36  CG2 VAL A   3     -17.987  44.687  11.801  0.00  0.00    +0.002 C 
ATOM     37  CG1 VAL A   3     -18.206  44.635   9.316  0.00  0.00    +0.002 C 
ENDBRANCH  16  35
ENDBRANCH  12  16
ENDBRANCH  11  13
BRANCH  11  38
ATOM     38  CB  ARG A   4     -13.530  45.015  13.787  0.00  0.00    +0.033 C 
BRANCH  38  39
ATOM     39  CG  ARG A   4     -14.799  45.430  14.577  0.00  0.00    +0.045 C 
BRANCH  39  40
ATOM     40  CD  ARG A   4     -15.245  46.835  14.207  0.00  0.00    +0.174 C 
BRANCH  40  41
ATOM     41  NE  ARG A   4     -16.189  47.353  15.204  0.00  0.00    -0.265 N 
ATOM     42  HE  ARG A   4     -16.388  46.764  16.038  0.00  0.00    +0.259 HD
ATOM     43  CZ  ARG A   4     -16.806  48.525  15.111  0.00  0.00    +0.342 C 
ATOM     44  NH2 ARG A   4     -17.636  48.916  16.081  0.00  0.00    -0.292 N 
ATOM     45 HH21 ARG A   4     -17.797  48.303  16.906  0.00  0.00    +0.255 HD
ATOM     46 HH22 ARG A   4     -18.121  49.833  16.012  0.00  0.00    +0.255 HD
ATOM     47  NH1 ARG A   4     -16.589  49.304  14.052  0.00  0.00    -0.292 N 
ATOM     48 HH11 ARG A   4     -17.070  50.223  13.975  0.00  0.00    +0.255 HD
ATOM     49 HH12 ARG A   4     -15.938  48.993  13.302  0.00  0.00    +0.255 HD
ENDBRANCH  40  41
ENDBRANCH  39  40
ENDBRANCH  38  39
ENDBRANCH  11  38
ENDBRANCH   7  11
ENDBRANCH   6   9
BRANCH   6  50
ATOM     50  CB  TRP A   5     -10.191  42.024  11.218  0.00  0.00    +0.057 C 
BRANCH  50  51
ATOM     51  CG  TRP A   5     -10.810  40.686  11.370  0.00  0.00    -0.002 A 
ATOM     52  CD1 TRP A   5     -11.460  40.201  12.491  0.00  0.00    +0.068 A 
ATOM     53  NE1 TRP A   5     -11.883  38.923  12.265  0.00  0.00    -0.352 N 
ATOM     54  HE1 TRP A   5     -12.418  38.343  12.943  0.00  0.00    +0.166 HD
ATOM     55  CE2 TRP A   5     -11.500  38.518  11.017  0.00  0.00    +0.056 A 
ATOM     56  CZ2 TRP A   5     -11.704  37.285  10.358  0.00  0.00    +0.017 A 
ATOM     57  CH2 TRP A   5     -11.182  37.144   9.094  0.00  0.00    +0.001 A 
ATOM     58  CZ3 TRP A   5     -10.517  38.198   8.459  0.00  0.00    +0.000 A 
ATOM     59  CE3 TRP A   5     -10.326  39.444   9.104  0.00  0.00    +0.001 A 
ATOM     60  CD2 TRP A   5     -10.822  39.601  10.409  0.00  0.00    +0.013 A 
ENDBRANCH  50  51
ENDBRANCH   6  50
ENDBRANCH   2   6
ENDBRANCH   1   3
BRANCH   1  61
ATOM     61  C   TYR A   6     -12.481  42.660   6.271  0.00  0.00    +0.241 C 
ATOM     62  O   TYR A   6     -13.167  43.664   6.365  0.00  0.00    -0.273 OA
ATOM     63  N   ARG A   7     -11.614  42.444   5.286  0.00  0.00    -0.297 N 
ATOM     64  H   ARG A   7     -11.010  41.599   5.339  0.00  0.00    +0.150 HD
BRANCH  63  65
ATOM     65  CA  ARG A   7     -11.463  43.335   4.127  0.00  0.00    +0.149 C 
BRANCH  65  66
ATOM     66  C   ARG A   7     -11.979  42.664   2.848  0.00  0.00    +0.244 C 
ATOM     67  O   ARG A   7     -11.534  41.582   2.492  0.00  0.00    -0.273 OA
ATOM     68  N   PRO A   8     -12.943  43.309   2.157  0.00  0.00    -0.272 N 
ATOM     69  CD  PRO A   8     -13.561  44.610   2.455  0.00  0.00    +0.094 C 
ATOM     70  CG  PRO A   8     -14.136  44.993   1.137  0.00  0.00    +0.024 C 
ATOM     71  CB  PRO A   8     -14.553  43.714   0.492  0.00  0.00    +0.031 C 
ATOM     72  CA  PRO A   8     -13.504  42.700   0.942  0.00  0.00    +0.152 C 
BRANCH  72  73
ATOM     73  C   PRO A   8     -12.441  42.491  -0.141  0.00  0.00    +0.241 C 
ATOM     74  N   GLY A   9     -11.402  43.318  -0.179  0.00  0.00    -0.295 N 
ATOM     75  H   GLY A   9     -11.362  44.128   0.472  0.00  0.00    +0.150 HD
ATOM     76  O   PRO A   8     -12.555  41.558  -0.912  0.00  0.00    -0.273 OA
BRANCH  74  77
ATOM     77  CA  GLY A   9     -10.320  43.096  -1.126  0.00  0.00    +0.176 C 
BRANCH  77  78
ATOM     78  C   GLY A   9      -9.367  41.933  -0.843  0.00  0.00    +0.243 C 
ATOM     79  N   GLY A  10      -9.558  41.245   0.280  0.00  0.00    -0.295 N 
ATOM     80  H   GLY A  10     -10.392  41.454   0.865  0.00  0.00    +0.150 HD
ATOM     81  O   GLY A   9      -8.467  41.658  -1.641  0.00  0.00    -0.273 OA
BRANCH  79  82
ATOM     82  CA  GLY A  10      -8.637  40.213   0.710  0.00  0.00    +0.176 C 
BRANCH  82  83
ATOM     83  C   GLY A  10      -8.947  38.882   0.055  0.00  0.00    +0.246 C 
ATOM     84  N   PRO A  11      -8.058  37.909   0.245  0.00  0.00    -0.272 N 
ATOM     85  CD  PRO A  11      -6.951  37.971   1.211  0.00  0.00    +0.094 C 
ATOM     86  CG  PRO A  11      -6.554  36.536   1.355  0.00  0.00    +0.024 C 
ATOM     87  CB  PRO A  11      -6.861  35.907   0.045  0.00  0.00    +0.031 C 
ATOM     88  CA  PRO A  11      -8.130  36.614  -0.434  0.00  0.00    +0.152 C 
ATOM     89  O   GLY A  10      -9.978  38.722  -0.603  0.00  0.00    -0.273 OA
BRANCH  88  90
ATOM     90  C   PRO A  11      -9.368  35.783  -0.087  0.00  0.00    +0.241 C 
ATOM     91  N   LEU A  12      -9.824  35.808   1.161  0.00  0.00    -0.297 N 
ATOM     92  H   LEU A  12      -9.375  36.441   1.853  0.00  0.00    +0.150 HD
ATOM     93  O   PRO A  11      -9.886  35.125  -0.986  0.00  0.00    -0.273 OA
BRANCH  91  94
ATOM     94  CA  LEU A  12     -10.948  34.962   1.587  0.00  0.00    +0.149 C 
BRANCH  94  95
ATOM     95  C   LEU A  12     -12.214  35.771   1.431  0.00  0.00    +0.241 C 
ATOM     96  O   LEU A  12     -12.187  36.952   1.674  0.00  0.00    -0.273 OA
ATOM     97  N   THR A  13     -13.306  35.137   1.021  0.00  0.00    -0.295 N 
ATOM     98  H   THR A  13     -13.233  34.164   0.660  0.00  0.00    +0.150 HD
BRANCH  97  99
ATOM     99  CA  THR A  13     -14.604  35.792   1.073  0.00  0.00    +0.176 C 
BRANCH  99 100
ATOM    100  C   THR A  13     -15.142  35.718   2.503  0.00  0.00    +0.243 C 
ATOM    101  O   THR A  13     -14.698  34.927   3.368  0.00  0.00    -0.273 OA
ATOM    102  N   ALA A  14     -16.169  36.531   2.753  0.00  0.00    -0.298 N 
ATOM    103  H   ALA A  14     -16.535  37.181   2.028  0.00  0.00    +0.150 HD
BRANCH 102 104
ATOM    104  CA  ALA A  14     -16.750  36.472   4.067  0.00  0.00    +0.137 C 
ATOM    105  CB  ALA A  14     -17.790  37.612   4.289  0.00  0.00    +0.030 C 
BRANCH 104 106
ATOM    106  C   ALA A  14     -17.396  35.119   4.302  0.00  0.00    +0.227 C 
ATOM    107  O   ALA A  14     -17.423  34.666   5.424  0.00  0.00    -0.286 OA
ENDBRANCH 104 106
ENDBRANCH 102 104
ENDBRANCH  99 100
BRANCH  99 108
ATOM    108  CB  THR A  13     -15.599  35.132   0.157  0.00  0.00    +0.137 C 
ATOM    109  CG2 THR A  13     -15.014  34.975  -1.261  0.00  0.00    +0.034 C 
BRANCH 108 110
ATOM    110  OG1 THR A  13     -15.865  33.827   0.686  0.00  0.00    -0.382 OA
ATOM    111  HG1 THR A  13     -15.023  33.307   0.718  0.00  0.00    +0.210 HD
ENDBRANCH 108 110
ENDBRANCH  99 108
ENDBRANCH  97  99
ENDBRANCH  94  95
BRANCH  94 112
ATOM    112  CB  LEU A  12     -10.848  34.504   3.049  0.00  0.00    +0.029 C 
BRANCH 112 113
ATOM    113  CG  LEU A  12      -9.687  33.576   3.429  0.00  0.00    +0.002 C 
ATOM    114  CD2 LEU A  12      -9.764  33.132   4.852  0.00  0.00    +0.000 C 
ATOM    115  CD1 LEU A  12      -9.635  32.369   2.479  0.00  0.00    +0.000 C 
ENDBRANCH 112 113
ENDBRANCH  94 112
ENDBRANCH  91  94
ENDBRANCH  88  90
ENDBRANCH  82  83
ENDBRANCH  79  82
ENDBRANCH  77  78
ENDBRANCH  74  77
ENDBRANCH  72  73
ENDBRANCH  65  66
BRANCH  65 116
ATOM    116  CB  ARG A   7     -10.000  43.746   3.920  0.00  0.00    +0.033 C 
BRANCH 116 117
ATOM    117  CG  ARG A   7      -9.405  44.559   5.059  0.00  0.00    +0.045 C 
BRANCH 117 118
ATOM    118  CD  ARG A   7      -8.293  45.504   4.579  0.00  0.00    +0.174 C 
BRANCH 118 119
ATOM    119  NE  ARG A   7      -6.989  44.847   4.469  0.00  0.00    -0.265 N 
ATOM    120  CZ  ARG A   7      -6.219  44.509   5.505  0.00  0.00    +0.342 C 
ATOM    121  NH2 ARG A   7      -6.624  44.749   6.743  0.00  0.00    -0.292 N 
ATOM    122 HH21 ARG A   7      -6.021  44.484   7.548  0.00  0.00    +0.255 HD
ATOM    123 HH22 ARG A   7      -7.545  45.202   6.910  0.00  0.00    +0.255 HD
ATOM    124  NH1 ARG A   7      -5.036  43.934   5.304  0.00  0.00    -0.292 N 
ATOM    125 HH11 ARG A   7      -4.440  43.673   6.115  0.00  0.00    +0.255 HD
ATOM    126 HH12 ARG A   7      -4.707  43.746   4.335  0.00  0.00    +0.255 HD
ATOM    127  HE  ARG A   7      -6.638  44.628   3.515  0.00  0.00    +0.259 HD
ENDBRANCH 118 119
ENDBRANCH 117 118
ENDBRANCH 116 117
ENDBRANCH  65 116
ENDBRANCH  63  65
ENDBRANCH   1  61
BRANCH   1 128
ATOM    128  CB  TYR A   6     -13.942  40.863   7.221  0.00  0.00    +0.055 C 
BRANCH 128 129
ATOM    129  CG  TYR A   6     -14.224  40.426   5.809  0.00  0.00    -0.020 A 
ATOM    130  CD2 TYR A   6     -13.618  39.299   5.273  0.00  0.00    -0.001 A 
ATOM    131  CE2 TYR A   6     -13.842  38.918   3.954  0.00  0.00    +0.036 A 
ATOM    132  CZ  TYR A   6     -14.676  39.696   3.131  0.00  0.00    +0.134 A 
ATOM    133  CE1 TYR A   6     -15.307  40.812   3.648  0.00  0.00    +0.036 A 
ATOM    134  CD1 TYR A   6     -15.072  41.182   4.982  0.00  0.00    -0.001 A 
BRANCH 132 135
ATOM    135  OH  TYR A   6     -14.901  39.273   1.833  0.00  0.00    -0.506 OA
ATOM    136  HH  TYR A   6     -15.862  39.063   1.717  0.00  0.00    +0.292 HD
ENDBRANCH 132 135
ENDBRANCH 128 129
ENDBRANCH   1 128
TORSDOF 47
REMARK  Name = ../refined-set-2016/4w97/4w97_pocket.pdb
REMARK  282 active torsions:
REMARK  status: ('A' for Active; 'I' for Inactive)
REMARK    1  A    between atoms: _1  and  _3
REMARK    2  A    between atoms: _3  and  _4
REMARK    3  A    between atoms: _3  and  _6
REMARK    4  A    between atoms: _6  and  _7
REMARK    5  A    between atoms: _10  and  _12
REMARK    6  A    between atoms: _12  and  _13
REMARK    7  A    between atoms: _12  and  _15
REMARK    8  A    between atoms: _15  and  _16
REMARK    9  A    between atoms: _22  and  _24
REMARK   10  A    between atoms: _24  and  _25
REMARK   11  A    between atoms: _24  and  _27
REMARK   12  A    between atoms: _27  and  _28
REMARK   13  A    between atoms: _31  and  _33
REMARK   14  A    between atoms: _33  and  _34
REMARK   15  A    between atoms: _33  and  _36
REMARK   16  A    between atoms: _36  and  _37
REMARK   17  A    between atoms: _40  and  _42
REMARK   18  A    between atoms: _42  and  _43
REMARK   19  A    between atoms: _42  and  _45
REMARK   20  A    between atoms: _45  and  _46
REMARK   21  A    between atoms: _52  and  _54
REMARK   22  A    between atoms: _54  and  _55
REMARK   23  A    between atoms: _54  and  _57
REMARK   24  A    between atoms: _57  and  _58
REMARK   25  A    between atoms: _63  and  _64
REMARK   26  A    between atoms: _66  and  _68
REMARK   27  A    between atoms: _68  and  _69
REMARK   28  A    between atoms: _68  and  _71
REMARK   29  A    between atoms: _71  and  _72
REMARK   30  A    between atoms: _74  and  _76
REMARK   31  A    between atoms: _76  and  _77
REMARK   32  A    between atoms: _80  and  _82
REMARK   33  A    between atoms: _82  and  _83
REMARK   34  A    between atoms: _82  and  _85
REMARK   35  A    between atoms: _85  and  _86
REMARK   36  A    between atoms: _89  and  _91
REMARK   37  A    between atoms: _91  and  _92
REMARK   38  A    between atoms: _91  and  _94
REMARK   39  A    between atoms: _94  and  _95
REMARK   40  A    between atoms: _95  and  _96
REMARK   41  A    between atoms: _101  and  _103
REMARK   42  A    between atoms: _103  and  _104
REMARK   43  A    between atoms: _103  and  _106
REMARK   44  A    between atoms: _109  and  _111
REMARK   45  A    between atoms: _111  and  _112
REMARK   46  A    between atoms: _111  and  _114
REMARK   47  A    between atoms: _117  and  _119
REMARK   48  A    between atoms: _119  and  _120
REMARK   49  A    between atoms: _119  and  _122
REMARK   50  A    between atoms: _122  and  _123
REMARK   51  A    between atoms: _126  and  _128
REMARK   52  A    between atoms: _128  and  _129
REMARK   53  A    between atoms: _128  and  _131
REMARK   54  A    between atoms: _131  and  _132
REMARK   55  A    between atoms: _137  and  _138
REMARK   56  A    between atoms: _140  and  _142
REMARK   57  A    between atoms: _142  and  _143
REMARK   58  A    between atoms: _142  and  _145
REMARK   59  A    between atoms: _145  and  _146
REMARK   60  A    between atoms: _146  and  _147
REMARK   61  A    between atoms: _152  and  _154
REMARK   62  A    between atoms: _154  and  _155
REMARK   63  A    between atoms: _154  and  _157
REMARK   64  A    between atoms: _157  and  _158
REMARK   65  A    between atoms: _161  and  _163
REMARK   66  A    between atoms: _163  and  _164
REMARK   67  A    between atoms: _163  and  _166
REMARK   68  A    between atoms: _166  and  _167
REMARK   69  A    between atoms: _167  and  _168
REMARK   70  A    between atoms: _171  and  _173
REMARK   71  A    between atoms: _173  and  _174
REMARK   72  A    between atoms: _177  and  _179
REMARK   73  A    between atoms: _179  and  _180
REMARK   74  A    between atoms: _179  and  _182
REMARK   75  A    between atoms: _182  and  _183
REMARK   76  A    between atoms: _183  and  _184
REMARK   77  A    between atoms: _189  and  _191
REMARK   78  A    between atoms: _191  and  _192
REMARK   79  A    between atoms: _191  and  _194
REMARK   80  A    between atoms: _194  and  _195
REMARK   81  A    between atoms: _195  and  _196
REMARK   82  A    between atoms: _196  and  _197
REMARK   83  A    between atoms: _206  and  _208
REMARK   84  A    between atoms: _208  and  _209
REMARK   85  A    between atoms: _212  and  _214
REMARK   86  A    between atoms: _214  and  _215
REMARK   87  A    between atoms: _214  and  _217
REMARK   88  A    between atoms: _217  and  _218
REMARK   89  A    between atoms: _223  and  _224
REMARK   90  A    between atoms: _226  and  _228
REMARK   91  A    between atoms: _228  and  _229
REMARK   92  A    between atoms: _228  and  _231
REMARK   93  A    between atoms: _231  and  _232
REMARK   94  A    between atoms: _235  and  _237
REMARK   95  A    between atoms: _237  and  _238
REMARK   96  A    between atoms: _237  and  _240
REMARK   97  A    between atoms: _240  and  _241
REMARK   98  A    between atoms: _241  and  _242
REMARK   99  A    between atoms: _245  and  _247
REMARK  100  A    between atoms: _247  and  _248
REMARK  101  A    between atoms: _247  and  _250
REMARK  102  A    between atoms: _250  and  _251
REMARK  103  A    between atoms: _254  and  _256
REMARK  104  A    between atoms: _256  and  _257
REMARK  105  A    between atoms: _256  and  _259
REMARK  106  A    between atoms: _259  and  _260
REMARK  107  A    between atoms: _260  and  _261
REMARK  108  A    between atoms: _261  and  _262
REMARK  109  A    between atoms: _271  and  _273
REMARK  110  A    between atoms: _273  and  _274
REMARK  111  A    between atoms: _273  and  _276
REMARK  112  A    between atoms: _276  and  _277
REMARK  113  A    between atoms: _282  and  _284
REMARK  114  A    between atoms: _284  and  _285
REMARK  115  A    between atoms: _284  and  _287
REMARK  116  A    between atoms: _287  and  _288
REMARK  117  A    between atoms: _288  and  _289
REMARK  118  A    between atoms: _289  and  _290
REMARK  119  A    between atoms: _290  and  _291
REMARK  120  A    between atoms: _295  and  _297
REMARK  121  A    between atoms: _297  and  _298
REMARK  122  A    between atoms: _297  and  _300
REMARK  123  A    between atoms: _300  and  _301
REMARK  124  A    between atoms: _301  and  _302
REMARK  125  A    between atoms: _307  and  _309
REMARK  126  A    between atoms: _309  and  _310
REMARK  127  A    between atoms: _309  and  _312
REMARK  128  A    between atoms: _312  and  _313
REMARK  129  A    between atoms: _313  and  _314
REMARK  130  A    between atoms: _319  and  _321
REMARK  131  A    between atoms: _321  and  _322
REMARK  132  A    between atoms: _321  and  _324
REMARK  133  A    between atoms: _324  and  _325
REMARK  134  A    between atoms: _325  and  _326
REMARK  135  A    between atoms: _326  and  _327
REMARK  136  A    between atoms: _336  and  _338
REMARK  137  A    between atoms: _338  and  _339
REMARK  138  A    between atoms: _338  and  _341
REMARK  139  A    between atoms: _341  and  _342
REMARK  140  A    between atoms: _342  and  _343
REMARK  141  A    between atoms: _345  and  _347
REMARK  142  A    between atoms: _347  and  _348
REMARK  143  A    between atoms: _347  and  _350
REMARK  144  A    between atoms: _350  and  _351
REMARK  145  A    between atoms: _361  and  _363
REMARK  146  A    between atoms: _363  and  _364
REMARK  147  A    between atoms: _363  and  _366
REMARK  148  A    between atoms: _366  and  _367
REMARK  149  A    between atoms: _370  and  _372
REMARK  150  A    between atoms: _372  and  _373
REMARK  151  A    between atoms: _372  and  _375
REMARK  152  A    between atoms: _375  and  _376
REMARK  153  A    between atoms: _379  and  _381
REMARK  154  A    between atoms: _381  and  _382
REMARK  155  A    between atoms: _381  and  _384
REMARK  156  A    between atoms: _384  and  _385
REMARK  157  A    between atoms: _388  and  _390
REMARK  158  A    between atoms: _390  and  _391
REMARK  159  A    between atoms: _390  and  _393
REMARK  160  A    between atoms: _393  and  _394
REMARK  161  A    between atoms: _399  and  _400
REMARK  162  A    between atoms: _402  and  _404
REMARK  163  A    between atoms: _404  and  _405
REMARK  164  A    between atoms: _404  and  _407
REMARK  165  A    between atoms: _407  and  _408
REMARK  166  A    between atoms: _408  and  _409
REMARK  167  A    between atoms: _409  and  _410
REMARK  168  A    between atoms: _419  and  _421
REMARK  169  A    between atoms: _421  and  _422
REMARK  170  A    between atoms: _421  and  _424
REMARK  171  A    between atoms: _424  and  _425
REMARK  172  A    between atoms: _431  and  _433
REMARK  173  A    between atoms: _433  and  _434
REMARK  174  A    between atoms: _433  and  _436
REMARK  175  A    between atoms: _436  and  _437
REMARK  176  A    between atoms: _440  and  _442
REMARK  177  A    between atoms: _442  and  _443
REMARK  178  A    between atoms: _442  and  _445
REMARK  179  A    between atoms: _445  and  _446
REMARK  180  A    between atoms: _446  and  _447
REMARK  181  A    between atoms: _447  and  _448
REMARK  182  A    between atoms: _457  and  _459
REMARK  183  A    between atoms: _459  and  _460
REMARK  184  A    between atoms: _459  and  _462
REMARK  185  A    between atoms: _462  and  _463
REMARK  186  A    between atoms: _466  and  _468
REMARK  187  A    between atoms: _468  and  _469
REMARK  188  A    between atoms: _468  and  _471
REMARK  189  A    between atoms: _471  and  _472
REMARK  190  A    between atoms: _475  and  _477
REMARK  191  A    between atoms: _477  and  _478
REMARK  192  A    between atoms: _477  and  _480
REMARK  193  A    between atoms: _480  and  _481
REMARK  194  A    between atoms: _484  and  _486
REMARK  195  A    between atoms: _486  and  _487
REMARK  196  A    between atoms: _486  and  _489
REMARK  197  A    between atoms: _489  and  _490
REMARK  198  A    between atoms: _500  and  _502
REMARK  199  A    between atoms: _502  and  _503
REMARK  200  A    between atoms: _502  and  _505
REMARK  201  A    between atoms: _508  and  _510
REMARK  202  A    between atoms: _510  and  _511
REMARK  203  A    between atoms: _510  and  _513
REMARK  204  A    between atoms: _513  and  _514
REMARK  205  A    between atoms: _516  and  _518
REMARK  206  A    between atoms: _518  and  _519
REMARK  207  A    between atoms: _518  and  _521
REMARK  208  A    between atoms: _524  and  _526
REMARK  209  A    between atoms: _526  and  _527
REMARK  210  A    between atoms: _526  and  _529
REMARK  211  A    between atoms: _529  and  _530
REMARK  212  A    between atoms: _530  and  _531
REMARK  213  A    between atoms: _531  and  _532
REMARK  214  A    between atoms: _541  and  _543
REMARK  215  A    between atoms: _543  and  _544
REMARK  216  A    between atoms: _543  and  _546
REMARK  217  A    between atoms: _546  and  _547
REMARK  218  A    between atoms: _547  and  _548
REMARK  219  A    between atoms: _551  and  _553
REMARK  220  A    between atoms: _553  and  _554
REMARK  221  A    between atoms: _553  and  _556
REMARK  222  A    between atoms: _556  and  _557
REMARK  223  A    between atoms: _557  and  _558
REMARK  224  A    between atoms: _563  and  _565
REMARK  225  A    between atoms: _565  and  _566
REMARK  226  A    between atoms: _565  and  _568
REMARK  227  A    between atoms: _568  and  _569
REMARK  228  A    between atoms: _572  and  _574
REMARK  229  A    between atoms: _574  and  _575
REMARK  230  A    between atoms: _574  and  _577
REMARK  231  A    between atoms: _580  and  _582
REMARK  232  A    between atoms: _582  and  _583
REMARK  233  A    between atoms: _582  and  _585
REMARK  234  A    between atoms: _585  and  _586
REMARK  235  A    between atoms: _588  and  _590
REMARK  236  A    between atoms: _590  and  _591
REMARK  237  A    between atoms: _590  and  _593
REMARK  238  A    between atoms: _596  and  _598
REMARK  239  A    between atoms: _598  and  _599
REMARK  240  A    between atoms: _598  and  _601
REMARK  241  A    between atoms: _601  and  _602
REMARK  242  A    between atoms: _602  and  _603
REMARK  243  A    between atoms: _603  and  _604
REMARK  244  A    between atoms: _613  and  _615
REMARK  245  A    between atoms: _615  and  _616
REMARK  246  A    between atoms: _615  and  _618
REMARK  247  A    between atoms: _618  and  _619
REMARK  248  A    between atoms: _629  and  _631
REMARK  249  A    between atoms: _631  and  _632
REMARK  250  A    between atoms: _631  and  _634
REMARK  251  A    between atoms: _634  and  _635
REMARK  252  A    between atoms: _640  and  _641
REMARK  253  A    between atoms: _643  and  _645
REMARK  254  A    between atoms: _645  and  _646
REMARK  255  A    between atoms: _645  and  _648
REMARK  256  A    between atoms: _648  and  _649
REMARK  257  A    between atoms: _649  and  _650
REMARK  258  A    between atoms: _650  and  _651
REMARK  259  A    between atoms: _661  and  _662
REMARK  260  A    between atoms: _667  and  _669
REMARK  261  A    between atoms: _669  and  _670
REMARK  262  A    between atoms: _672  and  _674
REMARK  263  A    between atoms: _674  and  _675
REMARK  264  A    between atoms: _678  and  _679
REMARK  265  A    between atoms: _684  and  _686
REMARK  266  A    between atoms: _686  and  _687
REMARK  267  A    between atoms: _686  and  _689
REMARK  268  A    between atoms: _689  and  _690
REMARK  269  A    between atoms: _693  and  _695
REMARK  270  A    between atoms: _695  and  _696
REMARK  271  A    between atoms: _695  and  _698
REMARK  272  A    between atoms: _698  and  _699
REMARK  273  A    between atoms: _702  and  _704
REMARK  274  A    between atoms: _704  and  _705
REMARK  275  A    between atoms: _708  and  _710
REMARK  276  A    between atoms: _710  and  _711
REMARK  277  A    between atoms: _710  and  _713
REMARK  278  A    between atoms: _713  and  _714
REMARK  279  A    between atoms: _714  and  _715
REMARK  280  A    between atoms: _720  and  _722
REMARK  281  A    between atoms: _722  and  _723
REMARK  282  A    between atoms: _722  and  _725
REMARK                            x       y       z     vdW  Elec       q    Type
REMARK                         _______ _______ _______ _____ _____    ______ ____
ROOT
ATOM      1  CA  GLN A   1     -15.285  31.253   3.633  0.00  0.00    +0.145 C 
ENDROOT
BRANCH   1   2
ATOM      2  C   GLN A   1     -14.912  31.461   5.080  0.00  0.00    +0.238 C 
ATOM      3  O   GLN A   1     -14.735  30.527   5.877  0.00  0.00    -0.274 OA
ATOM      4  N   VAL A   2     -14.764  32.726   5.503  0.00  0.00    -0.298 N 
ATOM      5  H   VAL A   2     -14.866  33.517   4.836  0.00  0.00    +0.150 HD
BRANCH   4   6
ATOM      6  CA  VAL A   2     -14.459  32.983   6.904  0.00  0.00    +0.137 C 
BRANCH   6   7
ATOM      7  CB  VAL A   2     -14.305  34.524   7.151  0.00  0.00    +0.026 C 
ATOM      8  CG2 VAL A   2     -14.143  34.838   8.656  0.00  0.00    +0.002 C 
ATOM      9  CG1 VAL A   2     -13.130  35.095   6.349  0.00  0.00    +0.002 C 
ENDBRANCH   6   7
BRANCH   6  10
ATOM     10  C   VAL A   2     -15.590  32.430   7.828  0.00  0.00    +0.227 C 
ATOM     11  O   VAL A   2     -15.301  31.728   8.829  0.00  0.00    -0.286 OA
ENDBRANCH   6  10
ENDBRANCH   4   6
ENDBRANCH   1   2
BRANCH   1  12
ATOM     12  N   GLN A   1     -16.322  32.237   3.248  0.00  0.00    -0.238 NA
ATOM     13  H   GLN A   1     -16.124  32.978   2.546  0.00  0.00    +0.142 HD
ENDBRANCH   1  12
BRANCH   1  14
ATOM     14  CB  GLN A   1     -14.047  31.398   2.733  0.00  0.00    +0.036 C 
BRANCH  14  15
ATOM     15  CG  GLN A   1     -14.179  30.882   1.302  0.00  0.00    +0.087 C 
BRANCH  15  16
ATOM     16  CD  GLN A   1     -12.971  31.220   0.511  0.00  0.00    +0.219 C 
ATOM     17  OE1 GLN A   1     -12.689  32.408   0.228  0.00  0.00    -0.275 OA
ATOM     18  NE2 GLN A   1     -12.243  30.171   0.070  0.00  0.00    -0.329 N 
ATOM     19 HE21 GLN A   1     -12.516  29.202   0.331  0.00  0.00    +0.145 HD
ATOM     20 HE22 GLN A   1     -11.410  30.332  -0.531  0.00  0.00    +0.145 HD
ENDBRANCH  15  16
ENDBRANCH  14  15
ENDBRANCH   1  14
TORSDOF 8
REMARK  Name = ../refined-set-2016/4w97/4w97_pocket.pdb
REMARK  282 active torsions:
REMARK  status: ('A' for Active; 'I' for Inactive)
REMARK    1  A    between atoms: _1  and  _3
REMARK    2  A    between atoms: _3  and  _4
REMARK    3  A    between atoms: _3  and  _6
REMARK    4  A    between atoms: _6  and  _7
REMARK    5  A    between atoms: _10  and  _12
REMARK    6  A    between atoms: _12  and  _13
REMARK    7  A    between atoms: _12  and  _15
REMARK    8  A    between atoms: _15  and  _16
REMARK    9  A    between atoms: _22  and  _24
REMARK   10  A    between atoms: _24  and  _25
REMARK   11  A    between atoms: _24  and  _27
REMARK   12  A    between atoms: _27  and  _28
REMARK   13  A    between atoms: _31  and  _33
REMARK   14  A    between atoms: _33  and  _34
REMARK   15  A    between atoms: _33  and  _36
REMARK   16  A    between atoms: _36  and  _37
REMARK   17  A    between atoms: _40  and  _42
REMARK   18  A    between atoms: _42  and  _43
REMARK   19  A    between atoms: _42  and  _45
REMARK   20  A    between atoms: _45  and  _46
REMARK   21  A    between atoms: _52  and  _54
REMARK   22  A    between atoms: _54  and  _55
REMARK   23  A    between atoms: _54  and  _57
REMARK   24  A    between atoms: _57  and  _58
REMARK   25  A    between atoms: _63  and  _64
REMARK   26  A    between atoms: _66  and  _68
REMARK   27  A    between atoms: _68  and  _69
REMARK   28  A    between atoms: _68  and  _71
REMARK   29  A    between atoms: _71  and  _72
REMARK   30  A    between atoms: _74  and  _76
REMARK   31  A    between atoms: _76  and  _77
REMARK   32  A    between atoms: _80  and  _82
REMARK   33  A    between atoms: _82  and  _83
REMARK   34  A    between atoms: _82  and  _85
REMARK   35  A    between atoms: _85  and  _86
REMARK   36  A    between atoms: _89  and  _91
REMARK   37  A    between atoms: _91  and  _92
REMARK   38  A    between atoms: _91  and  _94
REMARK   39  A    between atoms: _94  and  _95
REMARK   40  A    between atoms: _95  and  _96
REMARK   41  A    between atoms: _101  and  _103
REMARK   42  A    between atoms: _103  and  _104
REMARK   43  A    between atoms: _103  and  _106
REMARK   44  A    between atoms: _109  and  _111
REMARK   45  A    between atoms: _111  and  _112
REMARK   46  A    between atoms: _111  and  _114
REMARK   47  A    between atoms: _117  and  _119
REMARK   48  A    between atoms: _119  and  _120
REMARK   49  A    between atoms: _119  and  _122
REMARK   50  A    between atoms: _122  and  _123
REMARK   51  A    between atoms: _126  and  _128
REMARK   52  A    between atoms: _128  and  _129
REMARK   53  A    between atoms: _128  and  _131
REMARK   54  A    between atoms: _131  and  _132
REMARK   55  A    between atoms: _137  and  _138
REMARK   56  A    between atoms: _140  and  _142
REMARK   57  A    between atoms: _142  and  _143
REMARK   58  A    between atoms: _142  and  _145
REMARK   59  A    between atoms: _145  and  _146
REMARK   60  A    between atoms: _146  and  _147
REMARK   61  A    between atoms: _152  and  _154
REMARK   62  A    between atoms: _154  and  _155
REMARK   63  A    between atoms: _154  and  _157
REMARK   64  A    between atoms: _157  and  _158
REMARK   65  A    between atoms: _161  and  _163
REMARK   66  A    between atoms: _163  and  _164
REMARK   67  A    between atoms: _163  and  _166
REMARK   68  A    between atoms: _166  and  _167
REMARK   69  A    between atoms: _167  and  _168
REMARK   70  A    between atoms: _171  and  _173
REMARK   71  A    between atoms: _173  and  _174
REMARK   72  A    between atoms: _177  and  _179
REMARK   73  A    between atoms: _179  and  _180
REMARK   74  A    between atoms: _179  and  _182
REMARK   75  A    between atoms: _182  and  _183
REMARK   76  A    between atoms: _183  and  _184
REMARK   77  A    between atoms: _189  and  _191
REMARK   78  A    between atoms: _191  and  _192
REMARK   79  A    between atoms: _191  and  _194
REMARK   80  A    between atoms: _194  and  _195
REMARK   81  A    between atoms: _195  and  _196
REMARK   82  A    between atoms: _196  and  _197
REMARK   83  A    between atoms: _206  and  _208
REMARK   84  A    between atoms: _208  and  _209
REMARK   85  A    between atoms: _212  and  _214
REMARK   86  A    between atoms: _214  and  _215
REMARK   87  A    between atoms: _214  and  _217
REMARK   88  A    between atoms: _217  and  _218
REMARK   89  A    between atoms: _223  and  _224
REMARK   90  A    between atoms: _226  and  _228
REMARK   91  A    between atoms: _228  and  _229
REMARK   92  A    between atoms: _228  and  _231
REMARK   93  A    between atoms: _231  and  _232
REMARK   94  A    between atoms: _235  and  _237
REMARK   95  A    between atoms: _237  and  _238
REMARK   96  A    between atoms: _237  and  _240
REMARK   97  A    between atoms: _240  and  _241
REMARK   98  A    between atoms: _241  and  _242
REMARK   99  A    between atoms: _245  and  _247
REMARK  100  A    between atoms: _247  and  _248
REMARK  101  A    between atoms: _247  and  _250
REMARK  102  A    between atoms: _250  and  _251
REMARK  103  A    between atoms: _254  and  _256
REMARK  104  A    between atoms: _256  and  _257
REMARK  105  A    between atoms: _256  and  _259
REMARK  106  A    between atoms: _259  and  _260
REMARK  107  A    between atoms: _260  and  _261
REMARK  108  A    between atoms: _261  and  _262
REMARK  109  A    between atoms: _271  and  _273
REMARK  110  A    between atoms: _273  and  _274
REMARK  111  A    between atoms: _273  and  _276
REMARK  112  A    between atoms: _276  and  _277
REMARK  113  A    between atoms: _282  and  _284
REMARK  114  A    between atoms: _284  and  _285
REMARK  115  A    between atoms: _284  and  _287
REMARK  116  A    between atoms: _287  and  _288
REMARK  117  A    between atoms: _288  and  _289
REMARK  118  A    between atoms: _289  and  _290
REMARK  119  A    between atoms: _290  and  _291
REMARK  120  A    between atoms: _295  and  _297
REMARK  121  A    between atoms: _297  and  _298
REMARK  122  A    between atoms: _297  and  _300
REMARK  123  A    between atoms: _300  and  _301
REMARK  124  A    between atoms: _301  and  _302
REMARK  125  A    between atoms: _307  and  _309
REMARK  126  A    between atoms: _309  and  _310
REMARK  127  A    between atoms: _309  and  _312
REMARK  128  A    between atoms: _312  and  _313
REMARK  129  A    between atoms: _313  and  _314
REMARK  130  A    between atoms: _319  and  _321
REMARK  131  A    between atoms: _321  and  _322
REMARK  132  A    between atoms: _321  and  _324
REMARK  133  A    between atoms: _324  and  _325
REMARK  134  A    between atoms: _325  and  _326
REMARK  135  A    between atoms: _326  and  _327
REMARK  136  A    between atoms: _336  and  _338
REMARK  137  A    between atoms: _338  and  _339
REMARK  138  A    between atoms: _338  and  _341
REMARK  139  A    between atoms: _341  and  _342
REMARK  140  A    between atoms: _342  and  _343
REMARK  141  A    between atoms: _345  and  _347
REMARK  142  A    between atoms: _347  and  _348
REMARK  143  A    between atoms: _347  and  _350
REMARK  144  A    between atoms: _350  and  _351
REMARK  145  A    between atoms: _361  and  _363
REMARK  146  A    between atoms: _363  and  _364
REMARK  147  A    between atoms: _363  and  _366
REMARK  148  A    between atoms: _366  and  _367
REMARK  149  A    between atoms: _370  and  _372
REMARK  150  A    between atoms: _372  and  _373
REMARK  151  A    between atoms: _372  and  _375
REMARK  152  A    between atoms: _375  and  _376
REMARK  153  A    between atoms: _379  and  _381
REMARK  154  A    between atoms: _381  and  _382
REMARK  155  A    between atoms: _381  and  _384
REMARK  156  A    between atoms: _384  and  _385
REMARK  157  A    between atoms: _388  and  _390
REMARK  158  A    between atoms: _390  and  _391
REMARK  159  A    between atoms: _390  and  _393
REMARK  160  A    between atoms: _393  and  _394
REMARK  161  A    between atoms: _399  and  _400
REMARK  162  A    between atoms: _402  and  _404
REMARK  163  A    between atoms: _404  and  _405
REMARK  164  A    between atoms: _404  and  _407
REMARK  165  A    between atoms: _407  and  _408
REMARK  166  A    between atoms: _408  and  _409
REMARK  167  A    between atoms: _409  and  _410
REMARK  168  A    between atoms: _419  and  _421
REMARK  169  A    between atoms: _421  and  _422
REMARK  170  A    between atoms: _421  and  _424
REMARK  171  A    between atoms: _424  and  _425
REMARK  172  A    between atoms: _431  and  _433
REMARK  173  A    between atoms: _433  and  _434
REMARK  174  A    between atoms: _433  and  _436
REMARK  175  A    between atoms: _436  and  _437
REMARK  176  A    between atoms: _440  and  _442
REMARK  177  A    between atoms: _442  and  _443
REMARK  178  A    between atoms: _442  and  _445
REMARK  179  A    between atoms: _445  and  _446
REMARK  180  A    between atoms: _446  and  _447
REMARK  181  A    between atoms: _447  and  _448
REMARK  182  A    between atoms: _457  and  _459
REMARK  183  A    between atoms: _459  and  _460
REMARK  184  A    between atoms: _459  and  _462
REMARK  185  A    between atoms: _462  and  _463
REMARK  186  A    between atoms: _466  and  _468
REMARK  187  A    between atoms: _468  and  _469
REMARK  188  A    between atoms: _468  and  _471
REMARK  189  A    between atoms: _471  and  _472
REMARK  190  A    between atoms: _475  and  _477
REMARK  191  A    between atoms: _477  and  _478
REMARK  192  A    between atoms: _477  and  _480
REMARK  193  A    between atoms: _480  and  _481
REMARK  194  A    between atoms: _484  and  _486
REMARK  195  A    between atoms: _486  and  _487
REMARK  196  A    between atoms: _486  and  _489
REMARK  197  A    between atoms: _489  and  _490
REMARK  198  A    between atoms: _500  and  _502
REMARK  199  A    between atoms: _502  and  _503
REMARK  200  A    between atoms: _502  and  _505
REMARK  201  A    between atoms: _508  and  _510
REMARK  202  A    between atoms: _510  and  _511
REMARK  203  A    between atoms: _510  and  _513
REMARK  204  A    between atoms: _513  and  _514
REMARK  205  A    between atoms: _516  and  _518
REMARK  206  A    between atoms: _518  and  _519
REMARK  207  A    between atoms: _518  and  _521
REMARK  208  A    between atoms: _524  and  _526
REMARK  209  A    between atoms: _526  and  _527
REMARK  210  A    between atoms: _526  and  _529
REMARK  211  A    between atoms: _529  and  _530
REMARK  212  A    between atoms: _530  and  _531
REMARK  213  A    between atoms: _531  and  _532
REMARK  214  A    between atoms: _541  and  _543
REMARK  215  A    between atoms: _543  and  _544
REMARK  216  A    between atoms: _543  and  _546
REMARK  217  A    between atoms: _546  and  _547
REMARK  218  A    between atoms: _547  and  _548
REMARK  219  A    between atoms: _551  and  _553
REMARK  220  A    between atoms: _553  and  _554
REMARK  221  A    between atoms: _553  and  _556
REMARK  222  A    between atoms: _556  and  _557
REMARK  223  A    between atoms: _557  and  _558
REMARK  224  A    between atoms: _563  and  _565
REMARK  225  A    between atoms: _565  and  _566
REMARK  226  A    between atoms: _565  and  _568
REMARK  227  A    between atoms: _568  and  _569
REMARK  228  A    between atoms: _572  and  _574
REMARK  229  A    between atoms: _574  and  _575
REMARK  230  A    between atoms: _574  and  _577
REMARK  231  A    between atoms: _580  and  _582
REMARK  232  A    between atoms: _582  and  _583
REMARK  233  A    between atoms: _582  and  _585
REMARK  234  A    between atoms: _585  and  _586
REMARK  235  A    between atoms: _588  and  _590
REMARK  236  A    between atoms: _590  and  _591
REMARK  237  A    between atoms: _590  and  _593
REMARK  238  A    between atoms: _596  and  _598
REMARK  239  A    between atoms: _598  and  _599
REMARK  240  A    between atoms: _598  and  _601
REMARK  241  A    between atoms: _601  and  _602
REMARK  242  A    between atoms: _602  and  _603
REMARK  243  A    between atoms: _603  and  _604
REMARK  244  A    between atoms: _613  and  _615
REMARK  245  A    between atoms: _615  and  _616
REMARK  246  A    between atoms: _615  and  _618
REMARK  247  A    between atoms: _618  and  _619
REMARK  248  A    between atoms: _629  and  _631
REMARK  249  A    between atoms: _631  and  _632
REMARK  250  A    between atoms: _631  and  _634
REMARK  251  A    between atoms: _634  and  _635
REMARK  252  A    between atoms: _640  and  _641
REMARK  253  A    between atoms: _643  and  _645
REMARK  254  A    between atoms: _645  and  _646
REMARK  255  A    between atoms: _645  and  _648
REMARK  256  A    between atoms: _648  and  _649
REMARK  257  A    between atoms: _649  and  _650
REMARK  258  A    between atoms: _650  and  _651
REMARK  259  A    between atoms: _661  and  _662
REMARK  260  A    between atoms: _667  and  _669
REMARK  261  A    between atoms: _669  and  _670
REMARK  262  A    between atoms: _672  and  _674
REMARK  263  A    between atoms: _674  and  _675
REMARK  264  A    between atoms: _678  and  _679
REMARK  265  A    between atoms: _684  and  _686
REMARK  266  A    between atoms: _686  and  _687
REMARK  267  A    between atoms: _686  and  _689
REMARK  268  A    between atoms: _689  and  _690
REMARK  269  A    between atoms: _693  and  _695
REMARK  270  A    between atoms: _695  and  _696
REMARK  271  A    between atoms: _695  and  _698
REMARK  272  A    between atoms: _698  and  _699
REMARK  273  A    between atoms: _702  and  _704
REMARK  274  A    between atoms: _704  and  _705
REMARK  275  A    between atoms: _708  and  _710
REMARK  276  A    between atoms: _710  and  _711
REMARK  277  A    between atoms: _710  and  _713
REMARK  278  A    between atoms: _713  and  _714
REMARK  279  A    between atoms: _714  and  _715
REMARK  280  A    between atoms: _720  and  _722
REMARK  281  A    between atoms: _722  and  _723
REMARK  282  A    between atoms: _722  and  _725
REMARK                            x       y       z     vdW  Elec       q    Type
REMARK                         _______ _______ _______ _____ _____    ______ ____
ROOT
ATOM      1  O   HOH     1     -13.363  37.598  14.533  0.00  0.00    +0.000 OA
ENDROOT
TORSDOF 0
REMARK  Name = ../refined-set-2016/4w97/4w97_pocket.pdb
REMARK  282 active torsions:
REMARK  status: ('A' for Active; 'I' for Inactive)
REMARK    1  A    between atoms: _1  and  _3
REMARK    2  A    between atoms: _3  and  _4
REMARK    3  A    between atoms: _3  and  _6
REMARK    4  A    between atoms: _6  and  _7
REMARK    5  A    between atoms: _10  and  _12
REMARK    6  A    between atoms: _12  and  _13
REMARK    7  A    between atoms: _12  and  _15
REMARK    8  A    between atoms: _15  and  _16
REMARK    9  A    between atoms: _22  and  _24
REMARK   10  A    between atoms: _24  and  _25
REMARK   11  A    between atoms: _24  and  _27
REMARK   12  A    between atoms: _27  and  _28
REMARK   13  A    between atoms: _31  and  _33
REMARK   14  A    between atoms: _33  and  _34
REMARK   15  A    between atoms: _33  and  _36
REMARK   16  A    between atoms: _36  and  _37
REMARK   17  A    between atoms: _40  and  _42
REMARK   18  A    between atoms: _42  and  _43
REMARK   19  A    between atoms: _42  and  _45
REMARK   20  A    between atoms: _45  and  _46
REMARK   21  A    between atoms: _52  and  _54
REMARK   22  A    between atoms: _54  and  _55
REMARK   23  A    between atoms: _54  and  _57
REMARK   24  A    between atoms: _57  and  _58
REMARK   25  A    between atoms: _63  and  _64
REMARK   26  A    between atoms: _66  and  _68
REMARK   27  A    between atoms: _68  and  _69
REMARK   28  A    between atoms: _68  and  _71
REMARK   29  A    between atoms: _71  and  _72
REMARK   30  A    between atoms: _74  and  _76
REMARK   31  A    between atoms: _76  and  _77
REMARK   32  A    between atoms: _80  and  _82
REMARK   33  A    between atoms: _82  and  _83
REMARK   34  A    between atoms: _82  and  _85
REMARK   35  A    between atoms: _85  and  _86
REMARK   36  A    between atoms: _89  and  _91
REMARK   37  A    between atoms: _91  and  _92
REMARK   38  A    between atoms: _91  and  _94
REMARK   39  A    between atoms: _94  and  _95
REMARK   40  A    between atoms: _95  and  _96
REMARK   41  A    between atoms: _101  and  _103
REMARK   42  A    between atoms: _103  and  _104
REMARK   43  A    between atoms: _103  and  _106
REMARK   44  A    between atoms: _109  and  _111
REMARK   45  A    between atoms: _111  and  _112
REMARK   46  A    between atoms: _111  and  _114
REMARK   47  A    between atoms: _117  and  _119
REMARK   48  A    between atoms: _119  and  _120
REMARK   49  A    between atoms: _119  and  _122
REMARK   50  A    between atoms: _122  and  _123
REMARK   51  A    between atoms: _126  and  _128
REMARK   52  A    between atoms: _128  and  _129
REMARK   53  A    between atoms: _128  and  _131
REMARK   54  A    between atoms: _131  and  _132
REMARK   55  A    between atoms: _137  and  _138
REMARK   56  A    between atoms: _140  and  _142
REMARK   57  A    between atoms: _142  and  _143
REMARK   58  A    between atoms: _142  and  _145
REMARK   59  A    between atoms: _145  and  _146
REMARK   60  A    between atoms: _146  and  _147
REMARK   61  A    between atoms: _152  and  _154
REMARK   62  A    between atoms: _154  and  _155
REMARK   63  A    between atoms: _154  and  _157
REMARK   64  A    between atoms: _157  and  _158
REMARK   65  A    between atoms: _161  and  _163
REMARK   66  A    between atoms: _163  and  _164
REMARK   67  A    between atoms: _163  and  _166
REMARK   68  A    between atoms: _166  and  _167
REMARK   69  A    between atoms: _167  and  _168
REMARK   70  A    between atoms: _171  and  _173
REMARK   71  A    between atoms: _173  and  _174
REMARK   72  A    between atoms: _177  and  _179
REMARK   73  A    between atoms: _179  and  _180
REMARK   74  A    between atoms: _179  and  _182
REMARK   75  A    between atoms: _182  and  _183
REMARK   76  A    between atoms: _183  and  _184
REMARK   77  A    between atoms: _189  and  _191
REMARK   78  A    between atoms: _191  and  _192
REMARK   79  A    between atoms: _191  and  _194
REMARK   80  A    between atoms: _194  and  _195
REMARK   81  A    between atoms: _195  and  _196
REMARK   82  A    between atoms: _196  and  _197
REMARK   83  A    between atoms: _206  and  _208
REMARK   84  A    between atoms: _208  and  _209
REMARK   85  A    between atoms: _212  and  _214
REMARK   86  A    between atoms: _214  and  _215
REMARK   87  A    between atoms: _214  and  _217
REMARK   88  A    between atoms: _217  and  _218
REMARK   89  A    between atoms: _223  and  _224
REMARK   90  A    between atoms: _226  and  _228
REMARK   91  A    between atoms: _228  and  _229
REMARK   92  A    between atoms: _228  and  _231
REMARK   93  A    between atoms: _231  and  _232
REMARK   94  A    between atoms: _235  and  _237
REMARK   95  A    between atoms: _237  and  _238
REMARK   96  A    between atoms: _237  and  _240
REMARK   97  A    between atoms: _240  and  _241
REMARK   98  A    between atoms: _241  and  _242
REMARK   99  A    between atoms: _245  and  _247
REMARK  100  A    between atoms: _247  and  _248
REMARK  101  A    between atoms: _247  and  _250
REMARK  102  A    between atoms: _250  and  _251
REMARK  103  A    between atoms: _254  and  _256
REMARK  104  A    between atoms: _256  and  _257
REMARK  105  A    between atoms: _256  and  _259
REMARK  106  A    between atoms: _259  and  _260
REMARK  107  A    between atoms: _260  and  _261
REMARK  108  A    between atoms: _261  and  _262
REMARK  109  A    between atoms: _271  and  _273
REMARK  110  A    between atoms: _273  and  _274
REMARK  111  A    between atoms: _273  and  _276
REMARK  112  A    between atoms: _276  and  _277
REMARK  113  A    between atoms: _282  and  _284
REMARK  114  A    between atoms: _284  and  _285
REMARK  115  A    between atoms: _284  and  _287
REMARK  116  A    between atoms: _287  and  _288
REMARK  117  A    between atoms: _288  and  _289
REMARK  118  A    between atoms: _289  and  _290
REMARK  119  A    between atoms: _290  and  _291
REMARK  120  A    between atoms: _295  and  _297
REMARK  121  A    between atoms: _297  and  _298
REMARK  122  A    between atoms: _297  and  _300
REMARK  123  A    between atoms: _300  and  _301
REMARK  124  A    between atoms: _301  and  _302
REMARK  125  A    between atoms: _307  and  _309
REMARK  126  A    between atoms: _309  and  _310
REMARK  127  A    between atoms: _309  and  _312
REMARK  128  A    between atoms: _312  and  _313
REMARK  129  A    between atoms: _313  and  _314
REMARK  130  A    between atoms: _319  and  _321
REMARK  131  A    between atoms: _321  and  _322
REMARK  132  A    between atoms: _321  and  _324
REMARK  133  A    between atoms: _324  and  _325
REMARK  134  A    between atoms: _325  and  _326
REMARK  135  A    between atoms: _326  and  _327
REMARK  136  A    between atoms: _336  and  _338
REMARK  137  A    between atoms: _338  and  _339
REMARK  138  A    between atoms: _338  and  _341
REMARK  139  A    between atoms: _341  and  _342
REMARK  140  A    between atoms: _342  and  _343
REMARK  141  A    between atoms: _345  and  _347
REMARK  142  A    between atoms: _347  and  _348
REMARK  143  A    between atoms: _347  and  _350
REMARK  144  A    between atoms: _350  and  _351
REMARK  145  A    between atoms: _361  and  _363
REMARK  146  A    between atoms: _363  and  _364
REMARK  147  A    between atoms: _363  and  _366
REMARK  148  A    between atoms: _366  and  _367
REMARK  149  A    between atoms: _370  and  _372
REMARK  150  A    between atoms: _372  and  _373
REMARK  151  A    between atoms: _372  and  _375
REMARK  152  A    between atoms: _375  and  _376
REMARK  153  A    between atoms: _379  and  _381
REMARK  154  A    between atoms: _381  and  _382
REMARK  155  A    between atoms: _381  and  _384
REMARK  156  A    between atoms: _384  and  _385
REMARK  157  A    between atoms: _388  and  _390
REMARK  158  A    between atoms: _390  and  _391
REMARK  159  A    between atoms: _390  and  _393
REMARK  160  A    between atoms: _393  and  _394
REMARK  161  A    between atoms: _399  and  _400
REMARK  162  A    between atoms: _402  and  _404
REMARK  163  A    between atoms: _404  and  _405
REMARK  164  A    between atoms: _404  and  _407
REMARK  165  A    between atoms: _407  and  _408
REMARK  166  A    between atoms: _408  and  _409
REMARK  167  A    between atoms: _409  and  _410
REMARK  168  A    between atoms: _419  and  _421
REMARK  169  A    between atoms: _421  and  _422
REMARK  170  A    between atoms: _421  and  _424
REMARK  171  A    between atoms: _424  and  _425
REMARK  172  A    between atoms: _431  and  _433
REMARK  173  A    between atoms: _433  and  _434
REMARK  174  A    between atoms: _433  and  _436
REMARK  175  A    between atoms: _436  and  _437
REMARK  176  A    between atoms: _440  and  _442
REMARK  177  A    between atoms: _442  and  _443
REMARK  178  A    between atoms: _442  and  _445
REMARK  179  A    between atoms: _445  and  _446
REMARK  180  A    between atoms: _446  and  _447
REMARK  181  A    between atoms: _447  and  _448
REMARK  182  A    between atoms: _457  and  _459
REMARK  183  A    between atoms: _459  and  _460
REMARK  184  A    between atoms: _459  and  _462
REMARK  185  A    between atoms: _462  and  _463
REMARK  186  A    between atoms: _466  and  _468
REMARK  187  A    between atoms: _468  and  _469
REMARK  188  A    between atoms: _468  and  _471
REMARK  189  A    between atoms: _471  and  _472
REMARK  190  A    between atoms: _475  and  _477
REMARK  191  A    between atoms: _477  and  _478
REMARK  192  A    between atoms: _477  and  _480
REMARK  193  A    between atoms: _480  and  _481
REMARK  194  A    between atoms: _484  and  _486
REMARK  195  A    between atoms: _486  and  _487
REMARK  196  A    between atoms: _486  and  _489
REMARK  197  A    between atoms: _489  and  _490
REMARK  198  A    between atoms: _500  and  _502
REMARK  199  A    between atoms: _502  and  _503
REMARK  200  A    between atoms: _502  and  _505
REMARK  201  A    between atoms: _508  and  _510
REMARK  202  A    between atoms: _510  and  _511
REMARK  203  A    between atoms: _510  and  _513
REMARK  204  A    between atoms: _513  and  _514
REMARK  205  A    between atoms: _516  and  _518
REMARK  206  A    between atoms: _518  and  _519
REMARK  207  A    between atoms: _518  and  _521
REMARK  208  A    between atoms: _524  and  _526
REMARK  209  A    between atoms: _526  and  _527
REMARK  210  A    between atoms: _526  and  _529
REMARK  211  A    between atoms: _529  and  _530
REMARK  212  A    between atoms: _530  and  _531
REMARK  213  A    between atoms: _531  and  _532
REMARK  214  A    between atoms: _541  and  _543
REMARK  215  A    between atoms: _543  and  _544
REMARK  216  A    between atoms: _543  and  _546
REMARK  217  A    between atoms: _546  and  _547
REMARK  218  A    between atoms: _547  and  _548
REMARK  219  A    between atoms: _551  and  _553
REMARK  220  A    between atoms: _553  and  _554
REMARK  221  A    between atoms: _553  and  _556
REMARK  222  A    between atoms: _556  and  _557
REMARK  223  A    between atoms: _557  and  _558
REMARK  224  A    between atoms: _563  and  _565
REMARK  225  A    between atoms: _565  and  _566
REMARK  226  A    between atoms: _565  and  _568
REMARK  227  A    between atoms: _568  and  _569
REMARK  228  A    between atoms: _572  and  _574
REMARK  229  A    between atoms: _574  and  _575
REMARK  230  A    between atoms: _574  and  _577
REMARK  231  A    between atoms: _580  and  _582
REMARK  232  A    between atoms: _582  and  _583
REMARK  233  A    between atoms: _582  and  _585
REMARK  234  A    between atoms: _585  and  _586
REMARK  235  A    between atoms: _588  and  _590
REMARK  236  A    between atoms: _590  and  _591
REMARK  237  A    between atoms: _590  and  _593
REMARK  238  A    between atoms: _596  and  _598
REMARK  239  A    between atoms: _598  and  _599
REMARK  240  A    between atoms: _598  and  _601
REMARK  241  A    between atoms: _601  and  _602
REMARK  242  A    between atoms: _602  and  _603
REMARK  243  A    between atoms: _603  and  _604
REMARK  244  A    between atoms: _613  and  _615
REMARK  245  A    between atoms: _615  and  _616
REMARK  246  A    between atoms: _615  and  _618
REMARK  247  A    between atoms: _618  and  _619
REMARK  248  A    between atoms: _629  and  _631
REMARK  249  A    between atoms: _631  and  _632
REMARK  250  A    between atoms: _631  and  _634
REMARK  251  A    between atoms: _634  and  _635
REMARK  252  A    between atoms: _640  and  _641
REMARK  253  A    between atoms: _643  and  _645
REMARK  254  A    between atoms: _645  and  _646
REMARK  255  A    between atoms: _645  and  _648
REMARK  256  A    between atoms: _648  and  _649
REMARK  257  A    between atoms: _649  and  _650
REMARK  258  A    between atoms: _650  and  _651
REMARK  259  A    between atoms: _661  and  _662
REMARK  260  A    between atoms: _667  and  _669
REMARK  261  A    between atoms: _669  and  _670
REMARK  262  A    between atoms: _672  and  _674
REMARK  263  A    between atoms: _674  and  _675
REMARK  264  A    between atoms: _678  and  _679
REMARK  265  A    between atoms: _684  and  _686
REMARK  266  A    between atoms: _686  and  _687
REMARK  267  A    between atoms: _686  and  _689
REMARK  268  A    between atoms: _689  and  _690
REMARK  269  A    between atoms: _693  and  _695
REMARK  270  A    between atoms: _695  and  _696
REMARK  271  A    between atoms: _695  and  _698
REMARK  272  A    between atoms: _698  and  _699
REMARK  273  A    between atoms: _702  and  _704
REMARK  274  A    between atoms: _704  and  _705
REMARK  275  A    between atoms: _708  and  _710
REMARK  276  A    between atoms: _710  and  _711
REMARK  277  A    between atoms: _710  and  _713
REMARK  278  A    between atoms: _713  and  _714
REMARK  279  A    between atoms: _714  and  _715
REMARK  280  A    between atoms: _720  and  _722
REMARK  281  A    between atoms: _722  and  _723
REMARK  282  A    between atoms: _722  and  _725
REMARK                            x       y       z     vdW  Elec       q    Type
REMARK                         _______ _______ _______ _____ _____    ______ ____
ROOT
ATOM      1  O   HOH     1      -6.103  41.052   3.252  0.00  0.00    +0.000 OA
ENDROOT
TORSDOF 0
REMARK  Name = ../refined-set-2016/4w97/4w97_pocket.pdb
REMARK  282 active torsions:
REMARK  status: ('A' for Active; 'I' for Inactive)
REMARK    1  A    between atoms: _1  and  _3
REMARK    2  A    between atoms: _3  and  _4
REMARK    3  A    between atoms: _3  and  _6
REMARK    4  A    between atoms: _6  and  _7
REMARK    5  A    between atoms: _10  and  _12
REMARK    6  A    between atoms: _12  and  _13
REMARK    7  A    between atoms: _12  and  _15
REMARK    8  A    between atoms: _15  and  _16
REMARK    9  A    between atoms: _22  and  _24
REMARK   10  A    between atoms: _24  and  _25
REMARK   11  A    between atoms: _24  and  _27
REMARK   12  A    between atoms: _27  and  _28
REMARK   13  A    between atoms: _31  and  _33
REMARK   14  A    between atoms: _33  and  _34
REMARK   15  A    between atoms: _33  and  _36
REMARK   16  A    between atoms: _36  and  _37
REMARK   17  A    between atoms: _40  and  _42
REMARK   18  A    between atoms: _42  and  _43
REMARK   19  A    between atoms: _42  and  _45
REMARK   20  A    between atoms: _45  and  _46
REMARK   21  A    between atoms: _52  and  _54
REMARK   22  A    between atoms: _54  and  _55
REMARK   23  A    between atoms: _54  and  _57
REMARK   24  A    between atoms: _57  and  _58
REMARK   25  A    between atoms: _63  and  _64
REMARK   26  A    between atoms: _66  and  _68
REMARK   27  A    between atoms: _68  and  _69
REMARK   28  A    between atoms: _68  and  _71
REMARK   29  A    between atoms: _71  and  _72
REMARK   30  A    between atoms: _74  and  _76
REMARK   31  A    between atoms: _76  and  _77
REMARK   32  A    between atoms: _80  and  _82
REMARK   33  A    between atoms: _82  and  _83
REMARK   34  A    between atoms: _82  and  _85
REMARK   35  A    between atoms: _85  and  _86
REMARK   36  A    between atoms: _89  and  _91
REMARK   37  A    between atoms: _91  and  _92
REMARK   38  A    between atoms: _91  and  _94
REMARK   39  A    between atoms: _94  and  _95
REMARK   40  A    between atoms: _95  and  _96
REMARK   41  A    between atoms: _101  and  _103
REMARK   42  A    between atoms: _103  and  _104
REMARK   43  A    between atoms: _103  and  _106
REMARK   44  A    between atoms: _109  and  _111
REMARK   45  A    between atoms: _111  and  _112
REMARK   46  A    between atoms: _111  and  _114
REMARK   47  A    between atoms: _117  and  _119
REMARK   48  A    between atoms: _119  and  _120
REMARK   49  A    between atoms: _119  and  _122
REMARK   50  A    between atoms: _122  and  _123
REMARK   51  A    between atoms: _126  and  _128
REMARK   52  A    between atoms: _128  and  _129
REMARK   53  A    between atoms: _128  and  _131
REMARK   54  A    between atoms: _131  and  _132
REMARK   55  A    between atoms: _137  and  _138
REMARK   56  A    between atoms: _140  and  _142
REMARK   57  A    between atoms: _142  and  _143
REMARK   58  A    between atoms: _142  and  _145
REMARK   59  A    between atoms: _145  and  _146
REMARK   60  A    between atoms: _146  and  _147
REMARK   61  A    between atoms: _152  and  _154
REMARK   62  A    between atoms: _154  and  _155
REMARK   63  A    between atoms: _154  and  _157
REMARK   64  A    between atoms: _157  and  _158
REMARK   65  A    between atoms: _161  and  _163
REMARK   66  A    between atoms: _163  and  _164
REMARK   67  A    between atoms: _163  and  _166
REMARK   68  A    between atoms: _166  and  _167
REMARK   69  A    between atoms: _167  and  _168
REMARK   70  A    between atoms: _171  and  _173
REMARK   71  A    between atoms: _173  and  _174
REMARK   72  A    between atoms: _177  and  _179
REMARK   73  A    between atoms: _179  and  _180
REMARK   74  A    between atoms: _179  and  _182
REMARK   75  A    between atoms: _182  and  _183
REMARK   76  A    between atoms: _183  and  _184
REMARK   77  A    between atoms: _189  and  _191
REMARK   78  A    between atoms: _191  and  _192
REMARK   79  A    between atoms: _191  and  _194
REMARK   80  A    between atoms: _194  and  _195
REMARK   81  A    between atoms: _195  and  _196
REMARK   82  A    between atoms: _196  and  _197
REMARK   83  A    between atoms: _206  and  _208
REMARK   84  A    between atoms: _208  and  _209
REMARK   85  A    between atoms: _212  and  _214
REMARK   86  A    between atoms: _214  and  _215
REMARK   87  A    between atoms: _214  and  _217
REMARK   88  A    between atoms: _217  and  _218
REMARK   89  A    between atoms: _223  and  _224
REMARK   90  A    between atoms: _226  and  _228
REMARK   91  A    between atoms: _228  and  _229
REMARK   92  A    between atoms: _228  and  _231
REMARK   93  A    between atoms: _231  and  _232
REMARK   94  A    between atoms: _235  and  _237
REMARK   95  A    between atoms: _237  and  _238
REMARK   96  A    between atoms: _237  and  _240
REMARK   97  A    between atoms: _240  and  _241
REMARK   98  A    between atoms: _241  and  _242
REMARK   99  A    between atoms: _245  and  _247
REMARK  100  A    between atoms: _247  and  _248
REMARK  101  A    between atoms: _247  and  _250
REMARK  102  A    between atoms: _250  and  _251
REMARK  103  A    between atoms: _254  and  _256
REMARK  104  A    between atoms: _256  and  _257
REMARK  105  A    between atoms: _256  and  _259
REMARK  106  A    between atoms: _259  and  _260
REMARK  107  A    between atoms: _260  and  _261
REMARK  108  A    between atoms: _261  and  _262
REMARK  109  A    between atoms: _271  and  _273
REMARK  110  A    between atoms: _273  and  _274
REMARK  111  A    between atoms: _273  and  _276
REMARK  112  A    between atoms: _276  and  _277
REMARK  113  A    between atoms: _282  and  _284
REMARK  114  A    between atoms: _284  and  _285
REMARK  115  A    between atoms: _284  and  _287
REMARK  116  A    between atoms: _287  and  _288
REMARK  117  A    between atoms: _288  and  _289
REMARK  118  A    between atoms: _289  and  _290
REMARK  119  A    between atoms: _290  and  _291
REMARK  120  A    between atoms: _295  and  _297
REMARK  121  A    between atoms: _297  and  _298
REMARK  122  A    between atoms: _297  and  _300
REMARK  123  A    between atoms: _300  and  _301
REMARK  124  A    between atoms: _301  and  _302
REMARK  125  A    between atoms: _307  and  _309
REMARK  126  A    between atoms: _309  and  _310
REMARK  127  A    between atoms: _309  and  _312
REMARK  128  A    between atoms: _312  and  _313
REMARK  129  A    between atoms: _313  and  _314
REMARK  130  A    between atoms: _319  and  _321
REMARK  131  A    between atoms: _321  and  _322
REMARK  132  A    between atoms: _321  and  _324
REMARK  133  A    between atoms: _324  and  _325
REMARK  134  A    between atoms: _325  and  _326
REMARK  135  A    between atoms: _326  and  _327
REMARK  136  A    between atoms: _336  and  _338
REMARK  137  A    between atoms: _338  and  _339
REMARK  138  A    between atoms: _338  and  _341
REMARK  139  A    between atoms: _341  and  _342
REMARK  140  A    between atoms: _342  and  _343
REMARK  141  A    between atoms: _345  and  _347
REMARK  142  A    between atoms: _347  and  _348
REMARK  143  A    between atoms: _347  and  _350
REMARK  144  A    between atoms: _350  and  _351
REMARK  145  A    between atoms: _361  and  _363
REMARK  146  A    between atoms: _363  and  _364
REMARK  147  A    between atoms: _363  and  _366
REMARK  148  A    between atoms: _366  and  _367
REMARK  149  A    between atoms: _370  and  _372
REMARK  150  A    between atoms: _372  and  _373
REMARK  151  A    between atoms: _372  and  _375
REMARK  152  A    between atoms: _375  and  _376
REMARK  153  A    between atoms: _379  and  _381
REMARK  154  A    between atoms: _381  and  _382
REMARK  155  A    between atoms: _381  and  _384
REMARK  156  A    between atoms: _384  and  _385
REMARK  157  A    between atoms: _388  and  _390
REMARK  158  A    between atoms: _390  and  _391
REMARK  159  A    between atoms: _390  and  _393
REMARK  160  A    between atoms: _393  and  _394
REMARK  161  A    between atoms: _399  and  _400
REMARK  162  A    between atoms: _402  and  _404
REMARK  163  A    between atoms: _404  and  _405
REMARK  164  A    between atoms: _404  and  _407
REMARK  165  A    between atoms: _407  and  _408
REMARK  166  A    between atoms: _408  and  _409
REMARK  167  A    between atoms: _409  and  _410
REMARK  168  A    between atoms: _419  and  _421
REMARK  169  A    between atoms: _421  and  _422
REMARK  170  A    between atoms: _421  and  _424
REMARK  171  A    between atoms: _424  and  _425
REMARK  172  A    between atoms: _431  and  _433
REMARK  173  A    between atoms: _433  and  _434
REMARK  174  A    between atoms: _433  and  _436
REMARK  175  A    between atoms: _436  and  _437
REMARK  176  A    between atoms: _440  and  _442
REMARK  177  A    between atoms: _442  and  _443
REMARK  178  A    between atoms: _442  and  _445
REMARK  179  A    between atoms: _445  and  _446
REMARK  180  A    between atoms: _446  and  _447
REMARK  181  A    between atoms: _447  and  _448
REMARK  182  A    between atoms: _457  and  _459
REMARK  183  A    between atoms: _459  and  _460
REMARK  184  A    between atoms: _459  and  _462
REMARK  185  A    between atoms: _462  and  _463
REMARK  186  A    between atoms: _466  and  _468
REMARK  187  A    between atoms: _468  and  _469
REMARK  188  A    between atoms: _468  and  _471
REMARK  189  A    between atoms: _471  and  _472
REMARK  190  A    between atoms: _475  and  _477
REMARK  191  A    between atoms: _477  and  _478
REMARK  192  A    between atoms: _477  and  _480
REMARK  193  A    between atoms: _480  and  _481
REMARK  194  A    between atoms: _484  and  _486
REMARK  195  A    between atoms: _486  and  _487
REMARK  196  A    between atoms: _486  and  _489
REMARK  197  A    between atoms: _489  and  _490
REMARK  198  A    between atoms: _500  and  _502
REMARK  199  A    between atoms: _502  and  _503
REMARK  200  A    between atoms: _502  and  _505
REMARK  201  A    between atoms: _508  and  _510
REMARK  202  A    between atoms: _510  and  _511
REMARK  203  A    between atoms: _510  and  _513
REMARK  204  A    between atoms: _513  and  _514
REMARK  205  A    between atoms: _516  and  _518
REMARK  206  A    between atoms: _518  and  _519
REMARK  207  A    between atoms: _518  and  _521
REMARK  208  A    between atoms: _524  and  _526
REMARK  209  A    between atoms: _526  and  _527
REMARK  210  A    between atoms: _526  and  _529
REMARK  211  A    between atoms: _529  and  _530
REMARK  212  A    between atoms: _530  and  _531
REMARK  213  A    between atoms: _531  and  _532
REMARK  214  A    between atoms: _541  and  _543
REMARK  215  A    between atoms: _543  and  _544
REMARK  216  A    between atoms: _543  and  _546
REMARK  217  A    between atoms: _546  and  _547
REMARK  218  A    between atoms: _547  and  _548
REMARK  219  A    between atoms: _551  and  _553
REMARK  220  A    between atoms: _553  and  _554
REMARK  221  A    between atoms: _553  and  _556
REMARK  222  A    between atoms: _556  and  _557
REMARK  223  A    between atoms: _557  and  _558
REMARK  224  A    between atoms: _563  and  _565
REMARK  225  A    between atoms: _565  and  _566
REMARK  226  A    between atoms: _565  and  _568
REMARK  227  A    between atoms: _568  and  _569
REMARK  228  A    between atoms: _572  and  _574
REMARK  229  A    between atoms: _574  and  _575
REMARK  230  A    between atoms: _574  and  _577
REMARK  231  A    between atoms: _580  and  _582
REMARK  232  A    between atoms: _582  and  _583
REMARK  233  A    between atoms: _582  and  _585
REMARK  234  A    between atoms: _585  and  _586
REMARK  235  A    between atoms: _588  and  _590
REMARK  236  A    between atoms: _590  and  _591
REMARK  237  A    between atoms: _590  and  _593
REMARK  238  A    between atoms: _596  and  _598
REMARK  239  A    between atoms: _598  and  _599
REMARK  240  A    between atoms: _598  and  _601
REMARK  241  A    between atoms: _601  and  _602
REMARK  242  A    between atoms: _602  and  _603
REMARK  243  A    between atoms: _603  and  _604
REMARK  244  A    between atoms: _613  and  _615
REMARK  245  A    between atoms: _615  and  _616
REMARK  246  A    between atoms: _615  and  _618
REMARK  247  A    between atoms: _618  and  _619
REMARK  248  A    between atoms: _629  and  _631
REMARK  249  A    between atoms: _631  and  _632
REMARK  250  A    between atoms: _631  and  _634
REMARK  251  A    between atoms: _634  and  _635
REMARK  252  A    between atoms: _640  and  _641
REMARK  253  A    between atoms: _643  and  _645
REMARK  254  A    between atoms: _645  and  _646
REMARK  255  A    between atoms: _645  and  _648
REMARK  256  A    between atoms: _648  and  _649
REMARK  257  A    between atoms: _649  and  _650
REMARK  258  A    between atoms: _650  and  _651
REMARK  259  A    between atoms: _661  and  _662
REMARK  260  A    between atoms: _667  and  _669
REMARK  261  A    between atoms: _669  and  _670
REMARK  262  A    between atoms: _672  and  _674
REMARK  263  A    between atoms: _674  and  _675
REMARK  264  A    between atoms: _678  and  _679
REMARK  265  A    between atoms: _684  and  _686
REMARK  266  A    between atoms: _686  and  _687
REMARK  267  A    between atoms: _686  and  _689
REMARK  268  A    between atoms: _689  and  _690
REMARK  269  A    between atoms: _693  and  _695
REMARK  270  A    between atoms: _695  and  _696
REMARK  271  A    between atoms: _695  and  _698
REMARK  272  A    between atoms: _698  and  _699
REMARK  273  A    between atoms: _702  and  _704
REMARK  274  A    between atoms: _704  and  _705
REMARK  275  A    between atoms: _708  and  _710
REMARK  276  A    between atoms: _710  and  _711
REMARK  277  A    between atoms: _710  and  _713
REMARK  278  A    between atoms: _713  and  _714
REMARK  279  A    between atoms: _714  and  _715
REMARK  280  A    between atoms: _720  and  _722
REMARK  281  A    between atoms: _722  and  _723
REMARK  282  A    between atoms: _722  and  _725
REMARK                            x       y       z     vdW  Elec       q    Type
REMARK                         _______ _______ _______ _____ _____    ______ ____
ROOT
ATOM      1  O   HOH     1      -4.795  45.879   9.677  0.00  0.00    +0.000 OA
ENDROOT
TORSDOF 0
REMARK  Name = ../refined-set-2016/4w97/4w97_pocket.pdb
REMARK  282 active torsions:
REMARK  status: ('A' for Active; 'I' for Inactive)
REMARK    1  A    between atoms: _1  and  _3
REMARK    2  A    between atoms: _3  and  _4
REMARK    3  A    between atoms: _3  and  _6
REMARK    4  A    between atoms: _6  and  _7
REMARK    5  A    between atoms: _10  and  _12
REMARK    6  A    between atoms: _12  and  _13
REMARK    7  A    between atoms: _12  and  _15
REMARK    8  A    between atoms: _15  and  _16
REMARK    9  A    between atoms: _22  and  _24
REMARK   10  A    between atoms: _24  and  _25
REMARK   11  A    between atoms: _24  and  _27
REMARK   12  A    between atoms: _27  and  _28
REMARK   13  A    between atoms: _31  and  _33
REMARK   14  A    between atoms: _33  and  _34
REMARK   15  A    between atoms: _33  and  _36
REMARK   16  A    between atoms: _36  and  _37
REMARK   17  A    between atoms: _40  and  _42
REMARK   18  A    between atoms: _42  and  _43
REMARK   19  A    between atoms: _42  and  _45
REMARK   20  A    between atoms: _45  and  _46
REMARK   21  A    between atoms: _52  and  _54
REMARK   22  A    between atoms: _54  and  _55
REMARK   23  A    between atoms: _54  and  _57
REMARK   24  A    between atoms: _57  and  _58
REMARK   25  A    between atoms: _63  and  _64
REMARK   26  A    between atoms: _66  and  _68
REMARK   27  A    between atoms: _68  and  _69
REMARK   28  A    between atoms: _68  and  _71
REMARK   29  A    between atoms: _71  and  _72
REMARK   30  A    between atoms: _74  and  _76
REMARK   31  A    between atoms: _76  and  _77
REMARK   32  A    between atoms: _80  and  _82
REMARK   33  A    between atoms: _82  and  _83
REMARK   34  A    between atoms: _82  and  _85
REMARK   35  A    between atoms: _85  and  _86
REMARK   36  A    between atoms: _89  and  _91
REMARK   37  A    between atoms: _91  and  _92
REMARK   38  A    between atoms: _91  and  _94
REMARK   39  A    between atoms: _94  and  _95
REMARK   40  A    between atoms: _95  and  _96
REMARK   41  A    between atoms: _101  and  _103
REMARK   42  A    between atoms: _103  and  _104
REMARK   43  A    between atoms: _103  and  _106
REMARK   44  A    between atoms: _109  and  _111
REMARK   45  A    between atoms: _111  and  _112
REMARK   46  A    between atoms: _111  and  _114
REMARK   47  A    between atoms: _117  and  _119
REMARK   48  A    between atoms: _119  and  _120
REMARK   49  A    between atoms: _119  and  _122
REMARK   50  A    between atoms: _122  and  _123
REMARK   51  A    between atoms: _126  and  _128
REMARK   52  A    between atoms: _128  and  _129
REMARK   53  A    between atoms: _128  and  _131
REMARK   54  A    between atoms: _131  and  _132
REMARK   55  A    between atoms: _137  and  _138
REMARK   56  A    between atoms: _140  and  _142
REMARK   57  A    between atoms: _142  and  _143
REMARK   58  A    between atoms: _142  and  _145
REMARK   59  A    between atoms: _145  and  _146
REMARK   60  A    between atoms: _146  and  _147
REMARK   61  A    between atoms: _152  and  _154
REMARK   62  A    between atoms: _154  and  _155
REMARK   63  A    between atoms: _154  and  _157
REMARK   64  A    between atoms: _157  and  _158
REMARK   65  A    between atoms: _161  and  _163
REMARK   66  A    between atoms: _163  and  _164
REMARK   67  A    between atoms: _163  and  _166
REMARK   68  A    between atoms: _166  and  _167
REMARK   69  A    between atoms: _167  and  _168
REMARK   70  A    between atoms: _171  and  _173
REMARK   71  A    between atoms: _173  and  _174
REMARK   72  A    between atoms: _177  and  _179
REMARK   73  A    between atoms: _179  and  _180
REMARK   74  A    between atoms: _179  and  _182
REMARK   75  A    between atoms: _182  and  _183
REMARK   76  A    between atoms: _183  and  _184
REMARK   77  A    between atoms: _189  and  _191
REMARK   78  A    between atoms: _191  and  _192
REMARK   79  A    between atoms: _191  and  _194
REMARK   80  A    between atoms: _194  and  _195
REMARK   81  A    between atoms: _195  and  _196
REMARK   82  A    between atoms: _196  and  _197
REMARK   83  A    between atoms: _206  and  _208
REMARK   84  A    between atoms: _208  and  _209
REMARK   85  A    between atoms: _212  and  _214
REMARK   86  A    between atoms: _214  and  _215
REMARK   87  A    between atoms: _214  and  _217
REMARK   88  A    between atoms: _217  and  _218
REMARK   89  A    between atoms: _223  and  _224
REMARK   90  A    between atoms: _226  and  _228
REMARK   91  A    between atoms: _228  and  _229
REMARK   92  A    between atoms: _228  and  _231
REMARK   93  A    between atoms: _231  and  _232
REMARK   94  A    between atoms: _235  and  _237
REMARK   95  A    between atoms: _237  and  _238
REMARK   96  A    between atoms: _237  and  _240
REMARK   97  A    between atoms: _240  and  _241
REMARK   98  A    between atoms: _241  and  _242
REMARK   99  A    between atoms: _245  and  _247
REMARK  100  A    between atoms: _247  and  _248
REMARK  101  A    between atoms: _247  and  _250
REMARK  102  A    between atoms: _250  and  _251
REMARK  103  A    between atoms: _254  and  _256
REMARK  104  A    between atoms: _256  and  _257
REMARK  105  A    between atoms: _256  and  _259
REMARK  106  A    between atoms: _259  and  _260
REMARK  107  A    between atoms: _260  and  _261
REMARK  108  A    between atoms: _261  and  _262
REMARK  109  A    between atoms: _271  and  _273
REMARK  110  A    between atoms: _273  and  _274
REMARK  111  A    between atoms: _273  and  _276
REMARK  112  A    between atoms: _276  and  _277
REMARK  113  A    between atoms: _282  and  _284
REMARK  114  A    between atoms: _284  and  _285
REMARK  115  A    between atoms: _284  and  _287
REMARK  116  A    between atoms: _287  and  _288
REMARK  117  A    between atoms: _288  and  _289
REMARK  118  A    between atoms: _289  and  _290
REMARK  119  A    between atoms: _290  and  _291
REMARK  120  A    between atoms: _295  and  _297
REMARK  121  A    between atoms: _297  and  _298
REMARK  122  A    between atoms: _297  and  _300
REMARK  123  A    between atoms: _300  and  _301
REMARK  124  A    between atoms: _301  and  _302
REMARK  125  A    between atoms: _307  and  _309
REMARK  126  A    between atoms: _309  and  _310
REMARK  127  A    between atoms: _309  and  _312
REMARK  128  A    between atoms: _312  and  _313
REMARK  129  A    between atoms: _313  and  _314
REMARK  130  A    between atoms: _319  and  _321
REMARK  131  A    between atoms: _321  and  _322
REMARK  132  A    between atoms: _321  and  _324
REMARK  133  A    between atoms: _324  and  _325
REMARK  134  A    between atoms: _325  and  _326
REMARK  135  A    between atoms: _326  and  _327
REMARK  136  A    between atoms: _336  and  _338
REMARK  137  A    between atoms: _338  and  _339
REMARK  138  A    between atoms: _338  and  _341
REMARK  139  A    between atoms: _341  and  _342
REMARK  140  A    between atoms: _342  and  _343
REMARK  141  A    between atoms: _345  and  _347
REMARK  142  A    between atoms: _347  and  _348
REMARK  143  A    between atoms: _347  and  _350
REMARK  144  A    between atoms: _350  and  _351
REMARK  145  A    between atoms: _361  and  _363
REMARK  146  A    between atoms: _363  and  _364
REMARK  147  A    between atoms: _363  and  _366
REMARK  148  A    between atoms: _366  and  _367
REMARK  149  A    between atoms: _370  and  _372
REMARK  150  A    between atoms: _372  and  _373
REMARK  151  A    between atoms: _372  and  _375
REMARK  152  A    between atoms: _375  and  _376
REMARK  153  A    between atoms: _379  and  _381
REMARK  154  A    between atoms: _381  and  _382
REMARK  155  A    between atoms: _381  and  _384
REMARK  156  A    between atoms: _384  and  _385
REMARK  157  A    between atoms: _388  and  _390
REMARK  158  A    between atoms: _390  and  _391
REMARK  159  A    between atoms: _390  and  _393
REMARK  160  A    between atoms: _393  and  _394
REMARK  161  A    between atoms: _399  and  _400
REMARK  162  A    between atoms: _402  and  _404
REMARK  163  A    between atoms: _404  and  _405
REMARK  164  A    between atoms: _404  and  _407
REMARK  165  A    between atoms: _407  and  _408
REMARK  166  A    between atoms: _408  and  _409
REMARK  167  A    between atoms: _409  and  _410
REMARK  168  A    between atoms: _419  and  _421
REMARK  169  A    between atoms: _421  and  _422
REMARK  170  A    between atoms: _421  and  _424
REMARK  171  A    between atoms: _424  and  _425
REMARK  172  A    between atoms: _431  and  _433
REMARK  173  A    between atoms: _433  and  _434
REMARK  174  A    between atoms: _433  and  _436
REMARK  175  A    between atoms: _436  and  _437
REMARK  176  A    between atoms: _440  and  _442
REMARK  177  A    between atoms: _442  and  _443
REMARK  178  A    between atoms: _442  and  _445
REMARK  179  A    between atoms: _445  and  _446
REMARK  180  A    between atoms: _446  and  _447
REMARK  181  A    between atoms: _447  and  _448
REMARK  182  A    between atoms: _457  and  _459
REMARK  183  A    between atoms: _459  and  _460
REMARK  184  A    between atoms: _459  and  _462
REMARK  185  A    between atoms: _462  and  _463
REMARK  186  A    between atoms: _466  and  _468
REMARK  187  A    between atoms: _468  and  _469
REMARK  188  A    between atoms: _468  and  _471
REMARK  189  A    between atoms: _471  and  _472
REMARK  190  A    between atoms: _475  and  _477
REMARK  191  A    between atoms: _477  and  _478
REMARK  192  A    between atoms: _477  and  _480
REMARK  193  A    between atoms: _480  and  _481
REMARK  194  A    between atoms: _484  and  _486
REMARK  195  A    between atoms: _486  and  _487
REMARK  196  A    between atoms: _486  and  _489
REMARK  197  A    between atoms: _489  and  _490
REMARK  198  A    between atoms: _500  and  _502
REMARK  199  A    between atoms: _502  and  _503
REMARK  200  A    between atoms: _502  and  _505
REMARK  201  A    between atoms: _508  and  _510
REMARK  202  A    between atoms: _510  and  _511
REMARK  203  A    between atoms: _510  and  _513
REMARK  204  A    between atoms: _513  and  _514
REMARK  205  A    between atoms: _516  and  _518
REMARK  206  A    between atoms: _518  and  _519
REMARK  207  A    between atoms: _518  and  _521
REMARK  208  A    between atoms: _524  and  _526
REMARK  209  A    between atoms: _526  and  _527
REMARK  210  A    between atoms: _526  and  _529
REMARK  211  A    between atoms: _529  and  _530
REMARK  212  A    between atoms: _530  and  _531
REMARK  213  A    between atoms: _531  and  _532
REMARK  214  A    between atoms: _541  and  _543
REMARK  215  A    between atoms: _543  and  _544
REMARK  216  A    between atoms: _543  and  _546
REMARK  217  A    between atoms: _546  and  _547
REMARK  218  A    between atoms: _547  and  _548
REMARK  219  A    between atoms: _551  and  _553
REMARK  220  A    between atoms: _553  and  _554
REMARK  221  A    between atoms: _553  and  _556
REMARK  222  A    between atoms: _556  and  _557
REMARK  223  A    between atoms: _557  and  _558
REMARK  224  A    between atoms: _563  and  _565
REMARK  225  A    between atoms: _565  and  _566
REMARK  226  A    between atoms: _565  and  _568
REMARK  227  A    between atoms: _568  and  _569
REMARK  228  A    between atoms: _572  and  _574
REMARK  229  A    between atoms: _574  and  _575
REMARK  230  A    between atoms: _574  and  _577
REMARK  231  A    between atoms: _580  and  _582
REMARK  232  A    between atoms: _582  and  _583
REMARK  233  A    between atoms: _582  and  _585
REMARK  234  A    between atoms: _585  and  _586
REMARK  235  A    between atoms: _588  and  _590
REMARK  236  A    between atoms: _590  and  _591
REMARK  237  A    between atoms: _590  and  _593
REMARK  238  A    between atoms: _596  and  _598
REMARK  239  A    between atoms: _598  and  _599
REMARK  240  A    between atoms: _598  and  _601
REMARK  241  A    between atoms: _601  and  _602
REMARK  242  A    between atoms: _602  and  _603
REMARK  243  A    between atoms: _603  and  _604
REMARK  244  A    between atoms: _613  and  _615
REMARK  245  A    between atoms: _615  and  _616
REMARK  246  A    between atoms: _615  and  _618
REMARK  247  A    between atoms: _618  and  _619
REMARK  248  A    between atoms: _629  and  _631
REMARK  249  A    between atoms: _631  and  _632
REMARK  250  A    between atoms: _631  and  _634
REMARK  251  A    between atoms: _634  and  _635
REMARK  252  A    between atoms: _640  and  _641
REMARK  253  A    between atoms: _643  and  _645
REMARK  254  A    between atoms: _645  and  _646
REMARK  255  A    between atoms: _645  and  _648
REMARK  256  A    between atoms: _648  and  _649
REMARK  257  A    between atoms: _649  and  _650
REMARK  258  A    between atoms: _650  and  _651
REMARK  259  A    between atoms: _661  and  _662
REMARK  260  A    between atoms: _667  and  _669
REMARK  261  A    between atoms: _669  and  _670
REMARK  262  A    between atoms: _672  and  _674
REMARK  263  A    between atoms: _674  and  _675
REMARK  264  A    between atoms: _678  and  _679
REMARK  265  A    between atoms: _684  and  _686
REMARK  266  A    between atoms: _686  and  _687
REMARK  267  A    between atoms: _686  and  _689
REMARK  268  A    between atoms: _689  and  _690
REMARK  269  A    between atoms: _693  and  _695
REMARK  270  A    between atoms: _695  and  _696
REMARK  271  A    between atoms: _695  and  _698
REMARK  272  A    between atoms: _698  and  _699
REMARK  273  A    between atoms: _702  and  _704
REMARK  274  A    between atoms: _704  and  _705
REMARK  275  A    between atoms: _708  and  _710
REMARK  276  A    between atoms: _710  and  _711
REMARK  277  A    between atoms: _710  and  _713
REMARK  278  A    between atoms: _713  and  _714
REMARK  279  A    between atoms: _714  and  _715
REMARK  280  A    between atoms: _720  and  _722
REMARK  281  A    between atoms: _722  and  _723
REMARK  282  A    between atoms: _722  and  _725
REMARK                            x       y       z     vdW  Elec       q    Type
REMARK                         _______ _______ _______ _____ _____    ______ ____
ROOT
ATOM      1  O   HOH     1      -1.738  44.939   9.491  0.00  0.00    +0.000 OA
ENDROOT
TORSDOF 0
REMARK  Name = ../refined-set-2016/4w97/4w97_pocket.pdb
REMARK  282 active torsions:
REMARK  status: ('A' for Active; 'I' for Inactive)
REMARK    1  A    between atoms: _1  and  _3
REMARK    2  A    between atoms: _3  and  _4
REMARK    3  A    between atoms: _3  and  _6
REMARK    4  A    between atoms: _6  and  _7
REMARK    5  A    between atoms: _10  and  _12
REMARK    6  A    between atoms: _12  and  _13
REMARK    7  A    between atoms: _12  and  _15
REMARK    8  A    between atoms: _15  and  _16
REMARK    9  A    between atoms: _22  and  _24
REMARK   10  A    between atoms: _24  and  _25
REMARK   11  A    between atoms: _24  and  _27
REMARK   12  A    between atoms: _27  and  _28
REMARK   13  A    between atoms: _31  and  _33
REMARK   14  A    between atoms: _33  and  _34
REMARK   15  A    between atoms: _33  and  _36
REMARK   16  A    between atoms: _36  and  _37
REMARK   17  A    between atoms: _40  and  _42
REMARK   18  A    between atoms: _42  and  _43
REMARK   19  A    between atoms: _42  and  _45
REMARK   20  A    between atoms: _45  and  _46
REMARK   21  A    between atoms: _52  and  _54
REMARK   22  A    between atoms: _54  and  _55
REMARK   23  A    between atoms: _54  and  _57
REMARK   24  A    between atoms: _57  and  _58
REMARK   25  A    between atoms: _63  and  _64
REMARK   26  A    between atoms: _66  and  _68
REMARK   27  A    between atoms: _68  and  _69
REMARK   28  A    between atoms: _68  and  _71
REMARK   29  A    between atoms: _71  and  _72
REMARK   30  A    between atoms: _74  and  _76
REMARK   31  A    between atoms: _76  and  _77
REMARK   32  A    between atoms: _80  and  _82
REMARK   33  A    between atoms: _82  and  _83
REMARK   34  A    between atoms: _82  and  _85
REMARK   35  A    between atoms: _85  and  _86
REMARK   36  A    between atoms: _89  and  _91
REMARK   37  A    between atoms: _91  and  _92
REMARK   38  A    between atoms: _91  and  _94
REMARK   39  A    between atoms: _94  and  _95
REMARK   40  A    between atoms: _95  and  _96
REMARK   41  A    between atoms: _101  and  _103
REMARK   42  A    between atoms: _103  and  _104
REMARK   43  A    between atoms: _103  and  _106
REMARK   44  A    between atoms: _109  and  _111
REMARK   45  A    between atoms: _111  and  _112
REMARK   46  A    between atoms: _111  and  _114
REMARK   47  A    between atoms: _117  and  _119
REMARK   48  A    between atoms: _119  and  _120
REMARK   49  A    between atoms: _119  and  _122
REMARK   50  A    between atoms: _122  and  _123
REMARK   51  A    between atoms: _126  and  _128
REMARK   52  A    between atoms: _128  and  _129
REMARK   53  A    between atoms: _128  and  _131
REMARK   54  A    between atoms: _131  and  _132
REMARK   55  A    between atoms: _137  and  _138
REMARK   56  A    between atoms: _140  and  _142
REMARK   57  A    between atoms: _142  and  _143
REMARK   58  A    between atoms: _142  and  _145
REMARK   59  A    between atoms: _145  and  _146
REMARK   60  A    between atoms: _146  and  _147
REMARK   61  A    between atoms: _152  and  _154
REMARK   62  A    between atoms: _154  and  _155
REMARK   63  A    between atoms: _154  and  _157
REMARK   64  A    between atoms: _157  and  _158
REMARK   65  A    between atoms: _161  and  _163
REMARK   66  A    between atoms: _163  and  _164
REMARK   67  A    between atoms: _163  and  _166
REMARK   68  A    between atoms: _166  and  _167
REMARK   69  A    between atoms: _167  and  _168
REMARK   70  A    between atoms: _171  and  _173
REMARK   71  A    between atoms: _173  and  _174
REMARK   72  A    between atoms: _177  and  _179
REMARK   73  A    between atoms: _179  and  _180
REMARK   74  A    between atoms: _179  and  _182
REMARK   75  A    between atoms: _182  and  _183
REMARK   76  A    between atoms: _183  and  _184
REMARK   77  A    between atoms: _189  and  _191
REMARK   78  A    between atoms: _191  and  _192
REMARK   79  A    between atoms: _191  and  _194
REMARK   80  A    between atoms: _194  and  _195
REMARK   81  A    between atoms: _195  and  _196
REMARK   82  A    between atoms: _196  and  _197
REMARK   83  A    between atoms: _206  and  _208
REMARK   84  A    between atoms: _208  and  _209
REMARK   85  A    between atoms: _212  and  _214
REMARK   86  A    between atoms: _214  and  _215
REMARK   87  A    between atoms: _214  and  _217
REMARK   88  A    between atoms: _217  and  _218
REMARK   89  A    between atoms: _223  and  _224
REMARK   90  A    between atoms: _226  and  _228
REMARK   91  A    between atoms: _228  and  _229
REMARK   92  A    between atoms: _228  and  _231
REMARK   93  A    between atoms: _231  and  _232
REMARK   94  A    between atoms: _235  and  _237
REMARK   95  A    between atoms: _237  and  _238
REMARK   96  A    between atoms: _237  and  _240
REMARK   97  A    between atoms: _240  and  _241
REMARK   98  A    between atoms: _241  and  _242
REMARK   99  A    between atoms: _245  and  _247
REMARK  100  A    between atoms: _247  and  _248
REMARK  101  A    between atoms: _247  and  _250
REMARK  102  A    between atoms: _250  and  _251
REMARK  103  A    between atoms: _254  and  _256
REMARK  104  A    between atoms: _256  and  _257
REMARK  105  A    between atoms: _256  and  _259
REMARK  106  A    between atoms: _259  and  _260
REMARK  107  A    between atoms: _260  and  _261
REMARK  108  A    between atoms: _261  and  _262
REMARK  109  A    between atoms: _271  and  _273
REMARK  110  A    between atoms: _273  and  _274
REMARK  111  A    between atoms: _273  and  _276
REMARK  112  A    between atoms: _276  and  _277
REMARK  113  A    between atoms: _282  and  _284
REMARK  114  A    between atoms: _284  and  _285
REMARK  115  A    between atoms: _284  and  _287
REMARK  116  A    between atoms: _287  and  _288
REMARK  117  A    between atoms: _288  and  _289
REMARK  118  A    between atoms: _289  and  _290
REMARK  119  A    between atoms: _290  and  _291
REMARK  120  A    between atoms: _295  and  _297
REMARK  121  A    between atoms: _297  and  _298
REMARK  122  A    between atoms: _297  and  _300
REMARK  123  A    between atoms: _300  and  _301
REMARK  124  A    between atoms: _301  and  _302
REMARK  125  A    between atoms: _307  and  _309
REMARK  126  A    between atoms: _309  and  _310
REMARK  127  A    between atoms: _309  and  _312
REMARK  128  A    between atoms: _312  and  _313
REMARK  129  A    between atoms: _313  and  _314
REMARK  130  A    between atoms: _319  and  _321
REMARK  131  A    between atoms: _321  and  _322
REMARK  132  A    between atoms: _321  and  _324
REMARK  133  A    between atoms: _324  and  _325
REMARK  134  A    between atoms: _325  and  _326
REMARK  135  A    between atoms: _326  and  _327
REMARK  136  A    between atoms: _336  and  _338
REMARK  137  A    between atoms: _338  and  _339
REMARK  138  A    between atoms: _338  and  _341
REMARK  139  A    between atoms: _341  and  _342
REMARK  140  A    between atoms: _342  and  _343
REMARK  141  A    between atoms: _345  and  _347
REMARK  142  A    between atoms: _347  and  _348
REMARK  143  A    between atoms: _347  and  _350
REMARK  144  A    between atoms: _350  and  _351
REMARK  145  A    between atoms: _361  and  _363
REMARK  146  A    between atoms: _363  and  _364
REMARK  147  A    between atoms: _363  and  _366
REMARK  148  A    between atoms: _366  and  _367
REMARK  149  A    between atoms: _370  and  _372
REMARK  150  A    between atoms: _372  and  _373
REMARK  151  A    between atoms: _372  and  _375
REMARK  152  A    between atoms: _375  and  _376
REMARK  153  A    between atoms: _379  and  _381
REMARK  154  A    between atoms: _381  and  _382
REMARK  155  A    between atoms: _381  and  _384
REMARK  156  A    between atoms: _384  and  _385
REMARK  157  A    between atoms: _388  and  _390
REMARK  158  A    between atoms: _390  and  _391
REMARK  159  A    between atoms: _390  and  _393
REMARK  160  A    between atoms: _393  and  _394
REMARK  161  A    between atoms: _399  and  _400
REMARK  162  A    between atoms: _402  and  _404
REMARK  163  A    between atoms: _404  and  _405
REMARK  164  A    between atoms: _404  and  _407
REMARK  165  A    between atoms: _407  and  _408
REMARK  166  A    between atoms: _408  and  _409
REMARK  167  A    between atoms: _409  and  _410
REMARK  168  A    between atoms: _419  and  _421
REMARK  169  A    between atoms: _421  and  _422
REMARK  170  A    between atoms: _421  and  _424
REMARK  171  A    between atoms: _424  and  _425
REMARK  172  A    between atoms: _431  and  _433
REMARK  173  A    between atoms: _433  and  _434
REMARK  174  A    between atoms: _433  and  _436
REMARK  175  A    between atoms: _436  and  _437
REMARK  176  A    between atoms: _440  and  _442
REMARK  177  A    between atoms: _442  and  _443
REMARK  178  A    between atoms: _442  and  _445
REMARK  179  A    between atoms: _445  and  _446
REMARK  180  A    between atoms: _446  and  _447
REMARK  181  A    between atoms: _447  and  _448
REMARK  182  A    between atoms: _457  and  _459
REMARK  183  A    between atoms: _459  and  _460
REMARK  184  A    between atoms: _459  and  _462
REMARK  185  A    between atoms: _462  and  _463
REMARK  186  A    between atoms: _466  and  _468
REMARK  187  A    between atoms: _468  and  _469
REMARK  188  A    between atoms: _468  and  _471
REMARK  189  A    between atoms: _471  and  _472
REMARK  190  A    between atoms: _475  and  _477
REMARK  191  A    between atoms: _477  and  _478
REMARK  192  A    between atoms: _477  and  _480
REMARK  193  A    between atoms: _480  and  _481
REMARK  194  A    between atoms: _484  and  _486
REMARK  195  A    between atoms: _486  and  _487
REMARK  196  A    between atoms: _486  and  _489
REMARK  197  A    between atoms: _489  and  _490
REMARK  198  A    between atoms: _500  and  _502
REMARK  199  A    between atoms: _502  and  _503
REMARK  200  A    between atoms: _502  and  _505
REMARK  201  A    between atoms: _508  and  _510
REMARK  202  A    between atoms: _510  and  _511
REMARK  203  A    between atoms: _510  and  _513
REMARK  204  A    between atoms: _513  and  _514
REMARK  205  A    between atoms: _516  and  _518
REMARK  206  A    between atoms: _518  and  _519
REMARK  207  A    between atoms: _518  and  _521
REMARK  208  A    between atoms: _524  and  _526
REMARK  209  A    between atoms: _526  and  _527
REMARK  210  A    between atoms: _526  and  _529
REMARK  211  A    between atoms: _529  and  _530
REMARK  212  A    between atoms: _530  and  _531
REMARK  213  A    between atoms: _531  and  _532
REMARK  214  A    between atoms: _541  and  _543
REMARK  215  A    between atoms: _543  and  _544
REMARK  216  A    between atoms: _543  and  _546
REMARK  217  A    between atoms: _546  and  _547
REMARK  218  A    between atoms: _547  and  _548
REMARK  219  A    between atoms: _551  and  _553
REMARK  220  A    between atoms: _553  and  _554
REMARK  221  A    between atoms: _553  and  _556
REMARK  222  A    between atoms: _556  and  _557
REMARK  223  A    between atoms: _557  and  _558
REMARK  224  A    between atoms: _563  and  _565
REMARK  225  A    between atoms: _565  and  _566
REMARK  226  A    between atoms: _565  and  _568
REMARK  227  A    between atoms: _568  and  _569
REMARK  228  A    between atoms: _572  and  _574
REMARK  229  A    between atoms: _574  and  _575
REMARK  230  A    between atoms: _574  and  _577
REMARK  231  A    between atoms: _580  and  _582
REMARK  232  A    between atoms: _582  and  _583
REMARK  233  A    between atoms: _582  and  _585
REMARK  234  A    between atoms: _585  and  _586
REMARK  235  A    between atoms: _588  and  _590
REMARK  236  A    between atoms: _590  and  _591
REMARK  237  A    between atoms: _590  and  _593
REMARK  238  A    between atoms: _596  and  _598
REMARK  239  A    between atoms: _598  and  _599
REMARK  240  A    between atoms: _598  and  _601
REMARK  241  A    between atoms: _601  and  _602
REMARK  242  A    between atoms: _602  and  _603
REMARK  243  A    between atoms: _603  and  _604
REMARK  244  A    between atoms: _613  and  _615
REMARK  245  A    between atoms: _615  and  _616
REMARK  246  A    between atoms: _615  and  _618
REMARK  247  A    between atoms: _618  and  _619
REMARK  248  A    between atoms: _629  and  _631
REMARK  249  A    between atoms: _631  and  _632
REMARK  250  A    between atoms: _631  and  _634
REMARK  251  A    between atoms: _634  and  _635
REMARK  252  A    between atoms: _640  and  _641
REMARK  253  A    between atoms: _643  and  _645
REMARK  254  A    between atoms: _645  and  _646
REMARK  255  A    between atoms: _645  and  _648
REMARK  256  A    between atoms: _648  and  _649
REMARK  257  A    between atoms: _649  and  _650
REMARK  258  A    between atoms: _650  and  _651
REMARK  259  A    between atoms: _661  and  _662
REMARK  260  A    between atoms: _667  and  _669
REMARK  261  A    between atoms: _669  and  _670
REMARK  262  A    between atoms: _672  and  _674
REMARK  263  A    between atoms: _674  and  _675
REMARK  264  A    between atoms: _678  and  _679
REMARK  265  A    between atoms: _684  and  _686
REMARK  266  A    between atoms: _686  and  _687
REMARK  267  A    between atoms: _686  and  _689
REMARK  268  A    between atoms: _689  and  _690
REMARK  269  A    between atoms: _693  and  _695
REMARK  270  A    between atoms: _695  and  _696
REMARK  271  A    between atoms: _695  and  _698
REMARK  272  A    between atoms: _698  and  _699
REMARK  273  A    between atoms: _702  and  _704
REMARK  274  A    between atoms: _704  and  _705
REMARK  275  A    between atoms: _708  and  _710
REMARK  276  A    between atoms: _710  and  _711
REMARK  277  A    between atoms: _710  and  _713
REMARK  278  A    between atoms: _713  and  _714
REMARK  279  A    between atoms: _714  and  _715
REMARK  280  A    between atoms: _720  and  _722
REMARK  281  A    between atoms: _722  and  _723
REMARK  282  A    between atoms: _722  and  _725
REMARK                            x       y       z     vdW  Elec       q    Type
REMARK                         _______ _______ _______ _____ _____    ______ ____
ROOT
ATOM      1  O   HOH     1     -16.138  45.796  19.822  0.00  0.00    +0.000 OA
ENDROOT
TORSDOF 0
REMARK  Name = ../refined-set-2016/4w97/4w97_pocket.pdb
REMARK  282 active torsions:
REMARK  status: ('A' for Active; 'I' for Inactive)
REMARK    1  A    between atoms: _1  and  _3
REMARK    2  A    between atoms: _3  and  _4
REMARK    3  A    between atoms: _3  and  _6
REMARK    4  A    between atoms: _6  and  _7
REMARK    5  A    between atoms: _10  and  _12
REMARK    6  A    between atoms: _12  and  _13
REMARK    7  A    between atoms: _12  and  _15
REMARK    8  A    between atoms: _15  and  _16
REMARK    9  A    between atoms: _22  and  _24
REMARK   10  A    between atoms: _24  and  _25
REMARK   11  A    between atoms: _24  and  _27
REMARK   12  A    between atoms: _27  and  _28
REMARK   13  A    between atoms: _31  and  _33
REMARK   14  A    between atoms: _33  and  _34
REMARK   15  A    between atoms: _33  and  _36
REMARK   16  A    between atoms: _36  and  _37
REMARK   17  A    between atoms: _40  and  _42
REMARK   18  A    between atoms: _42  and  _43
REMARK   19  A    between atoms: _42  and  _45
REMARK   20  A    between atoms: _45  and  _46
REMARK   21  A    between atoms: _52  and  _54
REMARK   22  A    between atoms: _54  and  _55
REMARK   23  A    between atoms: _54  and  _57
REMARK   24  A    between atoms: _57  and  _58
REMARK   25  A    between atoms: _63  and  _64
REMARK   26  A    between atoms: _66  and  _68
REMARK   27  A    between atoms: _68  and  _69
REMARK   28  A    between atoms: _68  and  _71
REMARK   29  A    between atoms: _71  and  _72
REMARK   30  A    between atoms: _74  and  _76
REMARK   31  A    between atoms: _76  and  _77
REMARK   32  A    between atoms: _80  and  _82
REMARK   33  A    between atoms: _82  and  _83
REMARK   34  A    between atoms: _82  and  _85
REMARK   35  A    between atoms: _85  and  _86
REMARK   36  A    between atoms: _89  and  _91
REMARK   37  A    between atoms: _91  and  _92
REMARK   38  A    between atoms: _91  and  _94
REMARK   39  A    between atoms: _94  and  _95
REMARK   40  A    between atoms: _95  and  _96
REMARK   41  A    between atoms: _101  and  _103
REMARK   42  A    between atoms: _103  and  _104
REMARK   43  A    between atoms: _103  and  _106
REMARK   44  A    between atoms: _109  and  _111
REMARK   45  A    between atoms: _111  and  _112
REMARK   46  A    between atoms: _111  and  _114
REMARK   47  A    between atoms: _117  and  _119
REMARK   48  A    between atoms: _119  and  _120
REMARK   49  A    between atoms: _119  and  _122
REMARK   50  A    between atoms: _122  and  _123
REMARK   51  A    between atoms: _126  and  _128
REMARK   52  A    between atoms: _128  and  _129
REMARK   53  A    between atoms: _128  and  _131
REMARK   54  A    between atoms: _131  and  _132
REMARK   55  A    between atoms: _137  and  _138
REMARK   56  A    between atoms: _140  and  _142
REMARK   57  A    between atoms: _142  and  _143
REMARK   58  A    between atoms: _142  and  _145
REMARK   59  A    between atoms: _145  and  _146
REMARK   60  A    between atoms: _146  and  _147
REMARK   61  A    between atoms: _152  and  _154
REMARK   62  A    between atoms: _154  and  _155
REMARK   63  A    between atoms: _154  and  _157
REMARK   64  A    between atoms: _157  and  _158
REMARK   65  A    between atoms: _161  and  _163
REMARK   66  A    between atoms: _163  and  _164
REMARK   67  A    between atoms: _163  and  _166
REMARK   68  A    between atoms: _166  and  _167
REMARK   69  A    between atoms: _167  and  _168
REMARK   70  A    between atoms: _171  and  _173
REMARK   71  A    between atoms: _173  and  _174
REMARK   72  A    between atoms: _177  and  _179
REMARK   73  A    between atoms: _179  and  _180
REMARK   74  A    between atoms: _179  and  _182
REMARK   75  A    between atoms: _182  and  _183
REMARK   76  A    between atoms: _183  and  _184
REMARK   77  A    between atoms: _189  and  _191
REMARK   78  A    between atoms: _191  and  _192
REMARK   79  A    between atoms: _191  and  _194
REMARK   80  A    between atoms: _194  and  _195
REMARK   81  A    between atoms: _195  and  _196
REMARK   82  A    between atoms: _196  and  _197
REMARK   83  A    between atoms: _206  and  _208
REMARK   84  A    between atoms: _208  and  _209
REMARK   85  A    between atoms: _212  and  _214
REMARK   86  A    between atoms: _214  and  _215
REMARK   87  A    between atoms: _214  and  _217
REMARK   88  A    between atoms: _217  and  _218
REMARK   89  A    between atoms: _223  and  _224
REMARK   90  A    between atoms: _226  and  _228
REMARK   91  A    between atoms: _228  and  _229
REMARK   92  A    between atoms: _228  and  _231
REMARK   93  A    between atoms: _231  and  _232
REMARK   94  A    between atoms: _235  and  _237
REMARK   95  A    between atoms: _237  and  _238
REMARK   96  A    between atoms: _237  and  _240
REMARK   97  A    between atoms: _240  and  _241
REMARK   98  A    between atoms: _241  and  _242
REMARK   99  A    between atoms: _245  and  _247
REMARK  100  A    between atoms: _247  and  _248
REMARK  101  A    between atoms: _247  and  _250
REMARK  102  A    between atoms: _250  and  _251
REMARK  103  A    between atoms: _254  and  _256
REMARK  104  A    between atoms: _256  and  _257
REMARK  105  A    between atoms: _256  and  _259
REMARK  106  A    between atoms: _259  and  _260
REMARK  107  A    between atoms: _260  and  _261
REMARK  108  A    between atoms: _261  and  _262
REMARK  109  A    between atoms: _271  and  _273
REMARK  110  A    between atoms: _273  and  _274
REMARK  111  A    between atoms: _273  and  _276
REMARK  112  A    between atoms: _276  and  _277
REMARK  113  A    between atoms: _282  and  _284
REMARK  114  A    between atoms: _284  and  _285
REMARK  115  A    between atoms: _284  and  _287
REMARK  116  A    between atoms: _287  and  _288
REMARK  117  A    between atoms: _288  and  _289
REMARK  118  A    between atoms: _289  and  _290
REMARK  119  A    between atoms: _290  and  _291
REMARK  120  A    between atoms: _295  and  _297
REMARK  121  A    between atoms: _297  and  _298
REMARK  122  A    between atoms: _297  and  _300
REMARK  123  A    between atoms: _300  and  _301
REMARK  124  A    between atoms: _301  and  _302
REMARK  125  A    between atoms: _307  and  _309
REMARK  126  A    between atoms: _309  and  _310
REMARK  127  A    between atoms: _309  and  _312
REMARK  128  A    between atoms: _312  and  _313
REMARK  129  A    between atoms: _313  and  _314
REMARK  130  A    between atoms: _319  and  _321
REMARK  131  A    between atoms: _321  and  _322
REMARK  132  A    between atoms: _321  and  _324
REMARK  133  A    between atoms: _324  and  _325
REMARK  134  A    between atoms: _325  and  _326
REMARK  135  A    between atoms: _326  and  _327
REMARK  136  A    between atoms: _336  and  _338
REMARK  137  A    between atoms: _338  and  _339
REMARK  138  A    between atoms: _338  and  _341
REMARK  139  A    between atoms: _341  and  _342
REMARK  140  A    between atoms: _342  and  _343
REMARK  141  A    between atoms: _345  and  _347
REMARK  142  A    between atoms: _347  and  _348
REMARK  143  A    between atoms: _347  and  _350
REMARK  144  A    between atoms: _350  and  _351
REMARK  145  A    between atoms: _361  and  _363
REMARK  146  A    between atoms: _363  and  _364
REMARK  147  A    between atoms: _363  and  _366
REMARK  148  A    between atoms: _366  and  _367
REMARK  149  A    between atoms: _370  and  _372
REMARK  150  A    between atoms: _372  and  _373
REMARK  151  A    between atoms: _372  and  _375
REMARK  152  A    between atoms: _375  and  _376
REMARK  153  A    between atoms: _379  and  _381
REMARK  154  A    between atoms: _381  and  _382
REMARK  155  A    between atoms: _381  and  _384
REMARK  156  A    between atoms: _384  and  _385
REMARK  157  A    between atoms: _388  and  _390
REMARK  158  A    between atoms: _390  and  _391
REMARK  159  A    between atoms: _390  and  _393
REMARK  160  A    between atoms: _393  and  _394
REMARK  161  A    between atoms: _399  and  _400
REMARK  162  A    between atoms: _402  and  _404
REMARK  163  A    between atoms: _404  and  _405
REMARK  164  A    between atoms: _404  and  _407
REMARK  165  A    between atoms: _407  and  _408
REMARK  166  A    between atoms: _408  and  _409
REMARK  167  A    between atoms: _409  and  _410
REMARK  168  A    between atoms: _419  and  _421
REMARK  169  A    between atoms: _421  and  _422
REMARK  170  A    between atoms: _421  and  _424
REMARK  171  A    between atoms: _424  and  _425
REMARK  172  A    between atoms: _431  and  _433
REMARK  173  A    between atoms: _433  and  _434
REMARK  174  A    between atoms: _433  and  _436
REMARK  175  A    between atoms: _436  and  _437
REMARK  176  A    between atoms: _440  and  _442
REMARK  177  A    between atoms: _442  and  _443
REMARK  178  A    between atoms: _442  and  _445
REMARK  179  A    between atoms: _445  and  _446
REMARK  180  A    between atoms: _446  and  _447
REMARK  181  A    between atoms: _447  and  _448
REMARK  182  A    between atoms: _457  and  _459
REMARK  183  A    between atoms: _459  and  _460
REMARK  184  A    between atoms: _459  and  _462
REMARK  185  A    between atoms: _462  and  _463
REMARK  186  A    between atoms: _466  and  _468
REMARK  187  A    between atoms: _468  and  _469
REMARK  188  A    between atoms: _468  and  _471
REMARK  189  A    between atoms: _471  and  _472
REMARK  190  A    between atoms: _475  and  _477
REMARK  191  A    between atoms: _477  and  _478
REMARK  192  A    between atoms: _477  and  _480
REMARK  193  A    between atoms: _480  and  _481
REMARK  194  A    between atoms: _484  and  _486
REMARK  195  A    between atoms: _486  and  _487
REMARK  196  A    between atoms: _486  and  _489
REMARK  197  A    between atoms: _489  and  _490
REMARK  198  A    between atoms: _500  and  _502
REMARK  199  A    between atoms: _502  and  _503
REMARK  200  A    between atoms: _502  and  _505
REMARK  201  A    between atoms: _508  and  _510
REMARK  202  A    between atoms: _510  and  _511
REMARK  203  A    between atoms: _510  and  _513
REMARK  204  A    between atoms: _513  and  _514
REMARK  205  A    between atoms: _516  and  _518
REMARK  206  A    between atoms: _518  and  _519
REMARK  207  A    between atoms: _518  and  _521
REMARK  208  A    between atoms: _524  and  _526
REMARK  209  A    between atoms: _526  and  _527
REMARK  210  A    between atoms: _526  and  _529
REMARK  211  A    between atoms: _529  and  _530
REMARK  212  A    between atoms: _530  and  _531
REMARK  213  A    between atoms: _531  and  _532
REMARK  214  A    between atoms: _541  and  _543
REMARK  215  A    between atoms: _543  and  _544
REMARK  216  A    between atoms: _543  and  _546
REMARK  217  A    between atoms: _546  and  _547
REMARK  218  A    between atoms: _547  and  _548
REMARK  219  A    between atoms: _551  and  _553
REMARK  220  A    between atoms: _553  and  _554
REMARK  221  A    between atoms: _553  and  _556
REMARK  222  A    between atoms: _556  and  _557
REMARK  223  A    between atoms: _557  and  _558
REMARK  224  A    between atoms: _563  and  _565
REMARK  225  A    between atoms: _565  and  _566
REMARK  226  A    between atoms: _565  and  _568
REMARK  227  A    between atoms: _568  and  _569
REMARK  228  A    between atoms: _572  and  _574
REMARK  229  A    between atoms: _574  and  _575
REMARK  230  A    between atoms: _574  and  _577
REMARK  231  A    between atoms: _580  and  _582
REMARK  232  A    between atoms: _582  and  _583
REMARK  233  A    between atoms: _582  and  _585
REMARK  234  A    between atoms: _585  and  _586
REMARK  235  A    between atoms: _588  and  _590
REMARK  236  A    between atoms: _590  and  _591
REMARK  237  A    between atoms: _590  and  _593
REMARK  238  A    between atoms: _596  and  _598
REMARK  239  A    between atoms: _598  and  _599
REMARK  240  A    between atoms: _598  and  _601
REMARK  241  A    between atoms: _601  and  _602
REMARK  242  A    between atoms: _602  and  _603
REMARK  243  A    between atoms: _603  and  _604
REMARK  244  A    between atoms: _613  and  _615
REMARK  245  A    between atoms: _615  and  _616
REMARK  246  A    between atoms: _615  and  _618
REMARK  247  A    between atoms: _618  and  _619
REMARK  248  A    between atoms: _629  and  _631
REMARK  249  A    between atoms: _631  and  _632
REMARK  250  A    between atoms: _631  and  _634
REMARK  251  A    between atoms: _634  and  _635
REMARK  252  A    between atoms: _640  and  _641
REMARK  253  A    between atoms: _643  and  _645
REMARK  254  A    between atoms: _645  and  _646
REMARK  255  A    between atoms: _645  and  _648
REMARK  256  A    between atoms: _648  and  _649
REMARK  257  A    between atoms: _649  and  _650
REMARK  258  A    between atoms: _650  and  _651
REMARK  259  A    between atoms: _661  and  _662
REMARK  260  A    between atoms: _667  and  _669
REMARK  261  A    between atoms: _669  and  _670
REMARK  262  A    between atoms: _672  and  _674
REMARK  263  A    between atoms: _674  and  _675
REMARK  264  A    between atoms: _678  and  _679
REMARK  265  A    between atoms: _684  and  _686
REMARK  266  A    between atoms: _686  and  _687
REMARK  267  A    between atoms: _686  and  _689
REMARK  268  A    between atoms: _689  and  _690
REMARK  269  A    between atoms: _693  and  _695
REMARK  270  A    between atoms: _695  and  _696
REMARK  271  A    between atoms: _695  and  _698
REMARK  272  A    between atoms: _698  and  _699
REMARK  273  A    between atoms: _702  and  _704
REMARK  274  A    between atoms: _704  and  _705
REMARK  275  A    between atoms: _708  and  _710
REMARK  276  A    between atoms: _710  and  _711
REMARK  277  A    between atoms: _710  and  _713
REMARK  278  A    between atoms: _713  and  _714
REMARK  279  A    between atoms: _714  and  _715
REMARK  280  A    between atoms: _720  and  _722
REMARK  281  A    between atoms: _722  and  _723
REMARK  282  A    between atoms: _722  and  _725
REMARK                            x       y       z     vdW  Elec       q    Type
REMARK                         _______ _______ _______ _____ _____    ______ ____
ROOT
ATOM      1  O   HOH     1      -5.996  34.143   4.286  0.00  0.00    +0.000 OA
ENDROOT
TORSDOF 0
REMARK  Name = ../refined-set-2016/4w97/4w97_pocket.pdb
REMARK  282 active torsions:
REMARK  status: ('A' for Active; 'I' for Inactive)
REMARK    1  A    between atoms: _1  and  _3
REMARK    2  A    between atoms: _3  and  _4
REMARK    3  A    between atoms: _3  and  _6
REMARK    4  A    between atoms: _6  and  _7
REMARK    5  A    between atoms: _10  and  _12
REMARK    6  A    between atoms: _12  and  _13
REMARK    7  A    between atoms: _12  and  _15
REMARK    8  A    between atoms: _15  and  _16
REMARK    9  A    between atoms: _22  and  _24
REMARK   10  A    between atoms: _24  and  _25
REMARK   11  A    between atoms: _24  and  _27
REMARK   12  A    between atoms: _27  and  _28
REMARK   13  A    between atoms: _31  and  _33
REMARK   14  A    between atoms: _33  and  _34
REMARK   15  A    between atoms: _33  and  _36
REMARK   16  A    between atoms: _36  and  _37
REMARK   17  A    between atoms: _40  and  _42
REMARK   18  A    between atoms: _42  and  _43
REMARK   19  A    between atoms: _42  and  _45
REMARK   20  A    between atoms: _45  and  _46
REMARK   21  A    between atoms: _52  and  _54
REMARK   22  A    between atoms: _54  and  _55
REMARK   23  A    between atoms: _54  and  _57
REMARK   24  A    between atoms: _57  and  _58
REMARK   25  A    between atoms: _63  and  _64
REMARK   26  A    between atoms: _66  and  _68
REMARK   27  A    between atoms: _68  and  _69
REMARK   28  A    between atoms: _68  and  _71
REMARK   29  A    between atoms: _71  and  _72
REMARK   30  A    between atoms: _74  and  _76
REMARK   31  A    between atoms: _76  and  _77
REMARK   32  A    between atoms: _80  and  _82
REMARK   33  A    between atoms: _82  and  _83
REMARK   34  A    between atoms: _82  and  _85
REMARK   35  A    between atoms: _85  and  _86
REMARK   36  A    between atoms: _89  and  _91
REMARK   37  A    between atoms: _91  and  _92
REMARK   38  A    between atoms: _91  and  _94
REMARK   39  A    between atoms: _94  and  _95
REMARK   40  A    between atoms: _95  and  _96
REMARK   41  A    between atoms: _101  and  _103
REMARK   42  A    between atoms: _103  and  _104
REMARK   43  A    between atoms: _103  and  _106
REMARK   44  A    between atoms: _109  and  _111
REMARK   45  A    between atoms: _111  and  _112
REMARK   46  A    between atoms: _111  and  _114
REMARK   47  A    between atoms: _117  and  _119
REMARK   48  A    between atoms: _119  and  _120
REMARK   49  A    between atoms: _119  and  _122
REMARK   50  A    between atoms: _122  and  _123
REMARK   51  A    between atoms: _126  and  _128
REMARK   52  A    between atoms: _128  and  _129
REMARK   53  A    between atoms: _128  and  _131
REMARK   54  A    between atoms: _131  and  _132
REMARK   55  A    between atoms: _137  and  _138
REMARK   56  A    between atoms: _140  and  _142
REMARK   57  A    between atoms: _142  and  _143
REMARK   58  A    between atoms: _142  and  _145
REMARK   59  A    between atoms: _145  and  _146
REMARK   60  A    between atoms: _146  and  _147
REMARK   61  A    between atoms: _152  and  _154
REMARK   62  A    between atoms: _154  and  _155
REMARK   63  A    between atoms: _154  and  _157
REMARK   64  A    between atoms: _157  and  _158
REMARK   65  A    between atoms: _161  and  _163
REMARK   66  A    between atoms: _163  and  _164
REMARK   67  A    between atoms: _163  and  _166
REMARK   68  A    between atoms: _166  and  _167
REMARK   69  A    between atoms: _167  and  _168
REMARK   70  A    between atoms: _171  and  _173
REMARK   71  A    between atoms: _173  and  _174
REMARK   72  A    between atoms: _177  and  _179
REMARK   73  A    between atoms: _179  and  _180
REMARK   74  A    between atoms: _179  and  _182
REMARK   75  A    between atoms: _182  and  _183
REMARK   76  A    between atoms: _183  and  _184
REMARK   77  A    between atoms: _189  and  _191
REMARK   78  A    between atoms: _191  and  _192
REMARK   79  A    between atoms: _191  and  _194
REMARK   80  A    between atoms: _194  and  _195
REMARK   81  A    between atoms: _195  and  _196
REMARK   82  A    between atoms: _196  and  _197
REMARK   83  A    between atoms: _206  and  _208
REMARK   84  A    between atoms: _208  and  _209
REMARK   85  A    between atoms: _212  and  _214
REMARK   86  A    between atoms: _214  and  _215
REMARK   87  A    between atoms: _214  and  _217
REMARK   88  A    between atoms: _217  and  _218
REMARK   89  A    between atoms: _223  and  _224
REMARK   90  A    between atoms: _226  and  _228
REMARK   91  A    between atoms: _228  and  _229
REMARK   92  A    between atoms: _228  and  _231
REMARK   93  A    between atoms: _231  and  _232
REMARK   94  A    between atoms: _235  and  _237
REMARK   95  A    between atoms: _237  and  _238
REMARK   96  A    between atoms: _237  and  _240
REMARK   97  A    between atoms: _240  and  _241
REMARK   98  A    between atoms: _241  and  _242
REMARK   99  A    between atoms: _245  and  _247
REMARK  100  A    between atoms: _247  and  _248
REMARK  101  A    between atoms: _247  and  _250
REMARK  102  A    between atoms: _250  and  _251
REMARK  103  A    between atoms: _254  and  _256
REMARK  104  A    between atoms: _256  and  _257
REMARK  105  A    between atoms: _256  and  _259
REMARK  106  A    between atoms: _259  and  _260
REMARK  107  A    between atoms: _260  and  _261
REMARK  108  A    between atoms: _261  and  _262
REMARK  109  A    between atoms: _271  and  _273
REMARK  110  A    between atoms: _273  and  _274
REMARK  111  A    between atoms: _273  and  _276
REMARK  112  A    between atoms: _276  and  _277
REMARK  113  A    between atoms: _282  and  _284
REMARK  114  A    between atoms: _284  and  _285
REMARK  115  A    between atoms: _284  and  _287
REMARK  116  A    between atoms: _287  and  _288
REMARK  117  A    between atoms: _288  and  _289
REMARK  118  A    between atoms: _289  and  _290
REMARK  119  A    between atoms: _290  and  _291
REMARK  120  A    between atoms: _295  and  _297
REMARK  121  A    between atoms: _297  and  _298
REMARK  122  A    between atoms: _297  and  _300
REMARK  123  A    between atoms: _300  and  _301
REMARK  124  A    between atoms: _301  and  _302
REMARK  125  A    between atoms: _307  and  _309
REMARK  126  A    between atoms: _309  and  _310
REMARK  127  A    between atoms: _309  and  _312
REMARK  128  A    between atoms: _312  and  _313
REMARK  129  A    between atoms: _313  and  _314
REMARK  130  A    between atoms: _319  and  _321
REMARK  131  A    between atoms: _321  and  _322
REMARK  132  A    between atoms: _321  and  _324
REMARK  133  A    between atoms: _324  and  _325
REMARK  134  A    between atoms: _325  and  _326
REMARK  135  A    between atoms: _326  and  _327
REMARK  136  A    between atoms: _336  and  _338
REMARK  137  A    between atoms: _338  and  _339
REMARK  138  A    between atoms: _338  and  _341
REMARK  139  A    between atoms: _341  and  _342
REMARK  140  A    between atoms: _342  and  _343
REMARK  141  A    between atoms: _345  and  _347
REMARK  142  A    between atoms: _347  and  _348
REMARK  143  A    between atoms: _347  and  _350
REMARK  144  A    between atoms: _350  and  _351
REMARK  145  A    between atoms: _361  and  _363
REMARK  146  A    between atoms: _363  and  _364
REMARK  147  A    between atoms: _363  and  _366
REMARK  148  A    between atoms: _366  and  _367
REMARK  149  A    between atoms: _370  and  _372
REMARK  150  A    between atoms: _372  and  _373
REMARK  151  A    between atoms: _372  and  _375
REMARK  152  A    between atoms: _375  and  _376
REMARK  153  A    between atoms: _379  and  _381
REMARK  154  A    between atoms: _381  and  _382
REMARK  155  A    between atoms: _381  and  _384
REMARK  156  A    between atoms: _384  and  _385
REMARK  157  A    between atoms: _388  and  _390
REMARK  158  A    between atoms: _390  and  _391
REMARK  159  A    between atoms: _390  and  _393
REMARK  160  A    between atoms: _393  and  _394
REMARK  161  A    between atoms: _399  and  _400
REMARK  162  A    between atoms: _402  and  _404
REMARK  163  A    between atoms: _404  and  _405
REMARK  164  A    between atoms: _404  and  _407
REMARK  165  A    between atoms: _407  and  _408
REMARK  166  A    between atoms: _408  and  _409
REMARK  167  A    between atoms: _409  and  _410
REMARK  168  A    between atoms: _419  and  _421
REMARK  169  A    between atoms: _421  and  _422
REMARK  170  A    between atoms: _421  and  _424
REMARK  171  A    between atoms: _424  and  _425
REMARK  172  A    between atoms: _431  and  _433
REMARK  173  A    between atoms: _433  and  _434
REMARK  174  A    between atoms: _433  and  _436
REMARK  175  A    between atoms: _436  and  _437
REMARK  176  A    between atoms: _440  and  _442
REMARK  177  A    between atoms: _442  and  _443
REMARK  178  A    between atoms: _442  and  _445
REMARK  179  A    between atoms: _445  and  _446
REMARK  180  A    between atoms: _446  and  _447
REMARK  181  A    between atoms: _447  and  _448
REMARK  182  A    between atoms: _457  and  _459
REMARK  183  A    between atoms: _459  and  _460
REMARK  184  A    between atoms: _459  and  _462
REMARK  185  A    between atoms: _462  and  _463
REMARK  186  A    between atoms: _466  and  _468
REMARK  187  A    between atoms: _468  and  _469
REMARK  188  A    between atoms: _468  and  _471
REMARK  189  A    between atoms: _471  and  _472
REMARK  190  A    between atoms: _475  and  _477
REMARK  191  A    between atoms: _477  and  _478
REMARK  192  A    between atoms: _477  and  _480
REMARK  193  A    between atoms: _480  and  _481
REMARK  194  A    between atoms: _484  and  _486
REMARK  195  A    between atoms: _486  and  _487
REMARK  196  A    between atoms: _486  and  _489
REMARK  197  A    between atoms: _489  and  _490
REMARK  198  A    between atoms: _500  and  _502
REMARK  199  A    between atoms: _502  and  _503
REMARK  200  A    between atoms: _502  and  _505
REMARK  201  A    between atoms: _508  and  _510
REMARK  202  A    between atoms: _510  and  _511
REMARK  203  A    between atoms: _510  and  _513
REMARK  204  A    between atoms: _513  and  _514
REMARK  205  A    between atoms: _516  and  _518
REMARK  206  A    between atoms: _518  and  _519
REMARK  207  A    between atoms: _518  and  _521
REMARK  208  A    between atoms: _524  and  _526
REMARK  209  A    between atoms: _526  and  _527
REMARK  210  A    between atoms: _526  and  _529
REMARK  211  A    between atoms: _529  and  _530
REMARK  212  A    between atoms: _530  and  _531
REMARK  213  A    between atoms: _531  and  _532
REMARK  214  A    between atoms: _541  and  _543
REMARK  215  A    between atoms: _543  and  _544
REMARK  216  A    between atoms: _543  and  _546
REMARK  217  A    between atoms: _546  and  _547
REMARK  218  A    between atoms: _547  and  _548
REMARK  219  A    between atoms: _551  and  _553
REMARK  220  A    between atoms: _553  and  _554
REMARK  221  A    between atoms: _553  and  _556
REMARK  222  A    between atoms: _556  and  _557
REMARK  223  A    between atoms: _557  and  _558
REMARK  224  A    between atoms: _563  and  _565
REMARK  225  A    between atoms: _565  and  _566
REMARK  226  A    between atoms: _565  and  _568
REMARK  227  A    between atoms: _568  and  _569
REMARK  228  A    between atoms: _572  and  _574
REMARK  229  A    between atoms: _574  and  _575
REMARK  230  A    between atoms: _574  and  _577
REMARK  231  A    between atoms: _580  and  _582
REMARK  232  A    between atoms: _582  and  _583
REMARK  233  A    between atoms: _582  and  _585
REMARK  234  A    between atoms: _585  and  _586
REMARK  235  A    between atoms: _588  and  _590
REMARK  236  A    between atoms: _590  and  _591
REMARK  237  A    between atoms: _590  and  _593
REMARK  238  A    between atoms: _596  and  _598
REMARK  239  A    between atoms: _598  and  _599
REMARK  240  A    between atoms: _598  and  _601
REMARK  241  A    between atoms: _601  and  _602
REMARK  242  A    between atoms: _602  and  _603
REMARK  243  A    between atoms: _603  and  _604
REMARK  244  A    between atoms: _613  and  _615
REMARK  245  A    between atoms: _615  and  _616
REMARK  246  A    between atoms: _615  and  _618
REMARK  247  A    between atoms: _618  and  _619
REMARK  248  A    between atoms: _629  and  _631
REMARK  249  A    between atoms: _631  and  _632
REMARK  250  A    between atoms: _631  and  _634
REMARK  251  A    between atoms: _634  and  _635
REMARK  252  A    between atoms: _640  and  _641
REMARK  253  A    between atoms: _643  and  _645
REMARK  254  A    between atoms: _645  and  _646
REMARK  255  A    between atoms: _645  and  _648
REMARK  256  A    between atoms: _648  and  _649
REMARK  257  A    between atoms: _649  and  _650
REMARK  258  A    between atoms: _650  and  _651
REMARK  259  A    between atoms: _661  and  _662
REMARK  260  A    between atoms: _667  and  _669
REMARK  261  A    between atoms: _669  and  _670
REMARK  262  A    between atoms: _672  and  _674
REMARK  263  A    between atoms: _674  and  _675
REMARK  264  A    between atoms: _678  and  _679
REMARK  265  A    between atoms: _684  and  _686
REMARK  266  A    between atoms: _686  and  _687
REMARK  267  A    between atoms: _686  and  _689
REMARK  268  A    between atoms: _689  and  _690
REMARK  269  A    between atoms: _693  and  _695
REMARK  270  A    between atoms: _695  and  _696
REMARK  271  A    between atoms: _695  and  _698
REMARK  272  A    between atoms: _698  and  _699
REMARK  273  A    between atoms: _702  and  _704
REMARK  274  A    between atoms: _704  and  _705
REMARK  275  A    between atoms: _708  and  _710
REMARK  276  A    between atoms: _710  and  _711
REMARK  277  A    between atoms: _710  and  _713
REMARK  278  A    between atoms: _713  and  _714
REMARK  279  A    between atoms: _714  and  _715
REMARK  280  A    between atoms: _720  and  _722
REMARK  281  A    between atoms: _722  and  _723
REMARK  282  A    between atoms: _722  and  _725
REMARK                            x       y       z     vdW  Elec       q    Type
REMARK                         _______ _______ _______ _____ _____    ______ ____
ROOT
ATOM      1  O   HOH     1     -11.338  50.540  11.617  0.00  0.00    +0.000 OA
ENDROOT
TORSDOF 0
REMARK  Name = ../refined-set-2016/4w97/4w97_pocket.pdb
REMARK  282 active torsions:
REMARK  status: ('A' for Active; 'I' for Inactive)
REMARK    1  A    between atoms: _1  and  _3
REMARK    2  A    between atoms: _3  and  _4
REMARK    3  A    between atoms: _3  and  _6
REMARK    4  A    between atoms: _6  and  _7
REMARK    5  A    between atoms: _10  and  _12
REMARK    6  A    between atoms: _12  and  _13
REMARK    7  A    between atoms: _12  and  _15
REMARK    8  A    between atoms: _15  and  _16
REMARK    9  A    between atoms: _22  and  _24
REMARK   10  A    between atoms: _24  and  _25
REMARK   11  A    between atoms: _24  and  _27
REMARK   12  A    between atoms: _27  and  _28
REMARK   13  A    between atoms: _31  and  _33
REMARK   14  A    between atoms: _33  and  _34
REMARK   15  A    between atoms: _33  and  _36
REMARK   16  A    between atoms: _36  and  _37
REMARK   17  A    between atoms: _40  and  _42
REMARK   18  A    between atoms: _42  and  _43
REMARK   19  A    between atoms: _42  and  _45
REMARK   20  A    between atoms: _45  and  _46
REMARK   21  A    between atoms: _52  and  _54
REMARK   22  A    between atoms: _54  and  _55
REMARK   23  A    between atoms: _54  and  _57
REMARK   24  A    between atoms: _57  and  _58
REMARK   25  A    between atoms: _63  and  _64
REMARK   26  A    between atoms: _66  and  _68
REMARK   27  A    between atoms: _68  and  _69
REMARK   28  A    between atoms: _68  and  _71
REMARK   29  A    between atoms: _71  and  _72
REMARK   30  A    between atoms: _74  and  _76
REMARK   31  A    between atoms: _76  and  _77
REMARK   32  A    between atoms: _80  and  _82
REMARK   33  A    between atoms: _82  and  _83
REMARK   34  A    between atoms: _82  and  _85
REMARK   35  A    between atoms: _85  and  _86
REMARK   36  A    between atoms: _89  and  _91
REMARK   37  A    between atoms: _91  and  _92
REMARK   38  A    between atoms: _91  and  _94
REMARK   39  A    between atoms: _94  and  _95
REMARK   40  A    between atoms: _95  and  _96
REMARK   41  A    between atoms: _101  and  _103
REMARK   42  A    between atoms: _103  and  _104
REMARK   43  A    between atoms: _103  and  _106
REMARK   44  A    between atoms: _109  and  _111
REMARK   45  A    between atoms: _111  and  _112
REMARK   46  A    between atoms: _111  and  _114
REMARK   47  A    between atoms: _117  and  _119
REMARK   48  A    between atoms: _119  and  _120
REMARK   49  A    between atoms: _119  and  _122
REMARK   50  A    between atoms: _122  and  _123
REMARK   51  A    between atoms: _126  and  _128
REMARK   52  A    between atoms: _128  and  _129
REMARK   53  A    between atoms: _128  and  _131
REMARK   54  A    between atoms: _131  and  _132
REMARK   55  A    between atoms: _137  and  _138
REMARK   56  A    between atoms: _140  and  _142
REMARK   57  A    between atoms: _142  and  _143
REMARK   58  A    between atoms: _142  and  _145
REMARK   59  A    between atoms: _145  and  _146
REMARK   60  A    between atoms: _146  and  _147
REMARK   61  A    between atoms: _152  and  _154
REMARK   62  A    between atoms: _154  and  _155
REMARK   63  A    between atoms: _154  and  _157
REMARK   64  A    between atoms: _157  and  _158
REMARK   65  A    between atoms: _161  and  _163
REMARK   66  A    between atoms: _163  and  _164
REMARK   67  A    between atoms: _163  and  _166
REMARK   68  A    between atoms: _166  and  _167
REMARK   69  A    between atoms: _167  and  _168
REMARK   70  A    between atoms: _171  and  _173
REMARK   71  A    between atoms: _173  and  _174
REMARK   72  A    between atoms: _177  and  _179
REMARK   73  A    between atoms: _179  and  _180
REMARK   74  A    between atoms: _179  and  _182
REMARK   75  A    between atoms: _182  and  _183
REMARK   76  A    between atoms: _183  and  _184
REMARK   77  A    between atoms: _189  and  _191
REMARK   78  A    between atoms: _191  and  _192
REMARK   79  A    between atoms: _191  and  _194
REMARK   80  A    between atoms: _194  and  _195
REMARK   81  A    between atoms: _195  and  _196
REMARK   82  A    between atoms: _196  and  _197
REMARK   83  A    between atoms: _206  and  _208
REMARK   84  A    between atoms: _208  and  _209
REMARK   85  A    between atoms: _212  and  _214
REMARK   86  A    between atoms: _214  and  _215
REMARK   87  A    between atoms: _214  and  _217
REMARK   88  A    between atoms: _217  and  _218
REMARK   89  A    between atoms: _223  and  _224
REMARK   90  A    between atoms: _226  and  _228
REMARK   91  A    between atoms: _228  and  _229
REMARK   92  A    between atoms: _228  and  _231
REMARK   93  A    between atoms: _231  and  _232
REMARK   94  A    between atoms: _235  and  _237
REMARK   95  A    between atoms: _237  and  _238
REMARK   96  A    between atoms: _237  and  _240
REMARK   97  A    between atoms: _240  and  _241
REMARK   98  A    between atoms: _241  and  _242
REMARK   99  A    between atoms: _245  and  _247
REMARK  100  A    between atoms: _247  and  _248
REMARK  101  A    between atoms: _247  and  _250
REMARK  102  A    between atoms: _250  and  _251
REMARK  103  A    between atoms: _254  and  _256
REMARK  104  A    between atoms: _256  and  _257
REMARK  105  A    between atoms: _256  and  _259
REMARK  106  A    between atoms: _259  and  _260
REMARK  107  A    between atoms: _260  and  _261
REMARK  108  A    between atoms: _261  and  _262
REMARK  109  A    between atoms: _271  and  _273
REMARK  110  A    between atoms: _273  and  _274
REMARK  111  A    between atoms: _273  and  _276
REMARK  112  A    between atoms: _276  and  _277
REMARK  113  A    between atoms: _282  and  _284
REMARK  114  A    between atoms: _284  and  _285
REMARK  115  A    between atoms: _284  and  _287
REMARK  116  A    between atoms: _287  and  _288
REMARK  117  A    between atoms: _288  and  _289
REMARK  118  A    between atoms: _289  and  _290
REMARK  119  A    between atoms: _290  and  _291
REMARK  120  A    between atoms: _295  and  _297
REMARK  121  A    between atoms: _297  and  _298
REMARK  122  A    between atoms: _297  and  _300
REMARK  123  A    between atoms: _300  and  _301
REMARK  124  A    between atoms: _301  and  _302
REMARK  125  A    between atoms: _307  and  _309
REMARK  126  A    between atoms: _309  and  _310
REMARK  127  A    between atoms: _309  and  _312
REMARK  128  A    between atoms: _312  and  _313
REMARK  129  A    between atoms: _313  and  _314
REMARK  130  A    between atoms: _319  and  _321
REMARK  131  A    between atoms: _321  and  _322
REMARK  132  A    between atoms: _321  and  _324
REMARK  133  A    between atoms: _324  and  _325
REMARK  134  A    between atoms: _325  and  _326
REMARK  135  A    between atoms: _326  and  _327
REMARK  136  A    between atoms: _336  and  _338
REMARK  137  A    between atoms: _338  and  _339
REMARK  138  A    between atoms: _338  and  _341
REMARK  139  A    between atoms: _341  and  _342
REMARK  140  A    between atoms: _342  and  _343
REMARK  141  A    between atoms: _345  and  _347
REMARK  142  A    between atoms: _347  and  _348
REMARK  143  A    between atoms: _347  and  _350
REMARK  144  A    between atoms: _350  and  _351
REMARK  145  A    between atoms: _361  and  _363
REMARK  146  A    between atoms: _363  and  _364
REMARK  147  A    between atoms: _363  and  _366
REMARK  148  A    between atoms: _366  and  _367
REMARK  149  A    between atoms: _370  and  _372
REMARK  150  A    between atoms: _372  and  _373
REMARK  151  A    between atoms: _372  and  _375
REMARK  152  A    between atoms: _375  and  _376
REMARK  153  A    between atoms: _379  and  _381
REMARK  154  A    between atoms: _381  and  _382
REMARK  155  A    between atoms: _381  and  _384
REMARK  156  A    between atoms: _384  and  _385
REMARK  157  A    between atoms: _388  and  _390
REMARK  158  A    between atoms: _390  and  _391
REMARK  159  A    between atoms: _390  and  _393
REMARK  160  A    between atoms: _393  and  _394
REMARK  161  A    between atoms: _399  and  _400
REMARK  162  A    between atoms: _402  and  _404
REMARK  163  A    between atoms: _404  and  _405
REMARK  164  A    between atoms: _404  and  _407
REMARK  165  A    between atoms: _407  and  _408
REMARK  166  A    between atoms: _408  and  _409
REMARK  167  A    between atoms: _409  and  _410
REMARK  168  A    between atoms: _419  and  _421
REMARK  169  A    between atoms: _421  and  _422
REMARK  170  A    between atoms: _421  and  _424
REMARK  171  A    between atoms: _424  and  _425
REMARK  172  A    between atoms: _431  and  _433
REMARK  173  A    between atoms: _433  and  _434
REMARK  174  A    between atoms: _433  and  _436
REMARK  175  A    between atoms: _436  and  _437
REMARK  176  A    between atoms: _440  and  _442
REMARK  177  A    between atoms: _442  and  _443
REMARK  178  A    between atoms: _442  and  _445
REMARK  179  A    between atoms: _445  and  _446
REMARK  180  A    between atoms: _446  and  _447
REMARK  181  A    between atoms: _447  and  _448
REMARK  182  A    between atoms: _457  and  _459
REMARK  183  A    between atoms: _459  and  _460
REMARK  184  A    between atoms: _459  and  _462
REMARK  185  A    between atoms: _462  and  _463
REMARK  186  A    between atoms: _466  and  _468
REMARK  187  A    between atoms: _468  and  _469
REMARK  188  A    between atoms: _468  and  _471
REMARK  189  A    between atoms: _471  and  _472
REMARK  190  A    between atoms: _475  and  _477
REMARK  191  A    between atoms: _477  and  _478
REMARK  192  A    between atoms: _477  and  _480
REMARK  193  A    between atoms: _480  and  _481
REMARK  194  A    between atoms: _484  and  _486
REMARK  195  A    between atoms: _486  and  _487
REMARK  196  A    between atoms: _486  and  _489
REMARK  197  A    between atoms: _489  and  _490
REMARK  198  A    between atoms: _500  and  _502
REMARK  199  A    between atoms: _502  and  _503
REMARK  200  A    between atoms: _502  and  _505
REMARK  201  A    between atoms: _508  and  _510
REMARK  202  A    between atoms: _510  and  _511
REMARK  203  A    between atoms: _510  and  _513
REMARK  204  A    between atoms: _513  and  _514
REMARK  205  A    between atoms: _516  and  _518
REMARK  206  A    between atoms: _518  and  _519
REMARK  207  A    between atoms: _518  and  _521
REMARK  208  A    between atoms: _524  and  _526
REMARK  209  A    between atoms: _526  and  _527
REMARK  210  A    between atoms: _526  and  _529
REMARK  211  A    between atoms: _529  and  _530
REMARK  212  A    between atoms: _530  and  _531
REMARK  213  A    between atoms: _531  and  _532
REMARK  214  A    between atoms: _541  and  _543
REMARK  215  A    between atoms: _543  and  _544
REMARK  216  A    between atoms: _543  and  _546
REMARK  217  A    between atoms: _546  and  _547
REMARK  218  A    between atoms: _547  and  _548
REMARK  219  A    between atoms: _551  and  _553
REMARK  220  A    between atoms: _553  and  _554
REMARK  221  A    between atoms: _553  and  _556
REMARK  222  A    between atoms: _556  and  _557
REMARK  223  A    between atoms: _557  and  _558
REMARK  224  A    between atoms: _563  and  _565
REMARK  225  A    between atoms: _565  and  _566
REMARK  226  A    between atoms: _565  and  _568
REMARK  227  A    between atoms: _568  and  _569
REMARK  228  A    between atoms: _572  and  _574
REMARK  229  A    between atoms: _574  and  _575
REMARK  230  A    between atoms: _574  and  _577
REMARK  231  A    between atoms: _580  and  _582
REMARK  232  A    between atoms: _582  and  _583
REMARK  233  A    between atoms: _582  and  _585
REMARK  234  A    between atoms: _585  and  _586
REMARK  235  A    between atoms: _588  and  _590
REMARK  236  A    between atoms: _590  and  _591
REMARK  237  A    between atoms: _590  and  _593
REMARK  238  A    between atoms: _596  and  _598
REMARK  239  A    between atoms: _598  and  _599
REMARK  240  A    between atoms: _598  and  _601
REMARK  241  A    between atoms: _601  and  _602
REMARK  242  A    between atoms: _602  and  _603
REMARK  243  A    between atoms: _603  and  _604
REMARK  244  A    between atoms: _613  and  _615
REMARK  245  A    between atoms: _615  and  _616
REMARK  246  A    between atoms: _615  and  _618
REMARK  247  A    between atoms: _618  and  _619
REMARK  248  A    between atoms: _629  and  _631
REMARK  249  A    between atoms: _631  and  _632
REMARK  250  A    between atoms: _631  and  _634
REMARK  251  A    between atoms: _634  and  _635
REMARK  252  A    between atoms: _640  and  _641
REMARK  253  A    between atoms: _643  and  _645
REMARK  254  A    between atoms: _645  and  _646
REMARK  255  A    between atoms: _645  and  _648
REMARK  256  A    between atoms: _648  and  _649
REMARK  257  A    between atoms: _649  and  _650
REMARK  258  A    between atoms: _650  and  _651
REMARK  259  A    between atoms: _661  and  _662
REMARK  260  A    between atoms: _667  and  _669
REMARK  261  A    between atoms: _669  and  _670
REMARK  262  A    between atoms: _672  and  _674
REMARK  263  A    between atoms: _674  and  _675
REMARK  264  A    between atoms: _678  and  _679
REMARK  265  A    between atoms: _684  and  _686
REMARK  266  A    between atoms: _686  and  _687
REMARK  267  A    between atoms: _686  and  _689
REMARK  268  A    between atoms: _689  and  _690
REMARK  269  A    between atoms: _693  and  _695
REMARK  270  A    between atoms: _695  and  _696
REMARK  271  A    between atoms: _695  and  _698
REMARK  272  A    between atoms: _698  and  _699
REMARK  273  A    between atoms: _702  and  _704
REMARK  274  A    between atoms: _704  and  _705
REMARK  275  A    between atoms: _708  and  _710
REMARK  276  A    between atoms: _710  and  _711
REMARK  277  A    between atoms: _710  and  _713
REMARK  278  A    between atoms: _713  and  _714
REMARK  279  A    between atoms: _714  and  _715
REMARK  280  A    between atoms: _720  and  _722
REMARK  281  A    between atoms: _722  and  _723
REMARK  282  A    between atoms: _722  and  _725
REMARK                            x       y       z     vdW  Elec       q    Type
REMARK                         _______ _______ _______ _____ _____    ______ ____
ROOT
ATOM      1  O   HOH     1      -4.055  37.869  22.917  0.00  0.00    +0.000 OA
ENDROOT
TORSDOF 0
REMARK  Name = ../refined-set-2016/4w97/4w97_pocket.pdb
REMARK  282 active torsions:
REMARK  status: ('A' for Active; 'I' for Inactive)
REMARK    1  A    between atoms: _1  and  _3
REMARK    2  A    between atoms: _3  and  _4
REMARK    3  A    between atoms: _3  and  _6
REMARK    4  A    between atoms: _6  and  _7
REMARK    5  A    between atoms: _10  and  _12
REMARK    6  A    between atoms: _12  and  _13
REMARK    7  A    between atoms: _12  and  _15
REMARK    8  A    between atoms: _15  and  _16
REMARK    9  A    between atoms: _22  and  _24
REMARK   10  A    between atoms: _24  and  _25
REMARK   11  A    between atoms: _24  and  _27
REMARK   12  A    between atoms: _27  and  _28
REMARK   13  A    between atoms: _31  and  _33
REMARK   14  A    between atoms: _33  and  _34
REMARK   15  A    between atoms: _33  and  _36
REMARK   16  A    between atoms: _36  and  _37
REMARK   17  A    between atoms: _40  and  _42
REMARK   18  A    between atoms: _42  and  _43
REMARK   19  A    between atoms: _42  and  _45
REMARK   20  A    between atoms: _45  and  _46
REMARK   21  A    between atoms: _52  and  _54
REMARK   22  A    between atoms: _54  and  _55
REMARK   23  A    between atoms: _54  and  _57
REMARK   24  A    between atoms: _57  and  _58
REMARK   25  A    between atoms: _63  and  _64
REMARK   26  A    between atoms: _66  and  _68
REMARK   27  A    between atoms: _68  and  _69
REMARK   28  A    between atoms: _68  and  _71
REMARK   29  A    between atoms: _71  and  _72
REMARK   30  A    between atoms: _74  and  _76
REMARK   31  A    between atoms: _76  and  _77
REMARK   32  A    between atoms: _80  and  _82
REMARK   33  A    between atoms: _82  and  _83
REMARK   34  A    between atoms: _82  and  _85
REMARK   35  A    between atoms: _85  and  _86
REMARK   36  A    between atoms: _89  and  _91
REMARK   37  A    between atoms: _91  and  _92
REMARK   38  A    between atoms: _91  and  _94
REMARK   39  A    between atoms: _94  and  _95
REMARK   40  A    between atoms: _95  and  _96
REMARK   41  A    between atoms: _101  and  _103
REMARK   42  A    between atoms: _103  and  _104
REMARK   43  A    between atoms: _103  and  _106
REMARK   44  A    between atoms: _109  and  _111
REMARK   45  A    between atoms: _111  and  _112
REMARK   46  A    between atoms: _111  and  _114
REMARK   47  A    between atoms: _117  and  _119
REMARK   48  A    between atoms: _119  and  _120
REMARK   49  A    between atoms: _119  and  _122
REMARK   50  A    between atoms: _122  and  _123
REMARK   51  A    between atoms: _126  and  _128
REMARK   52  A    between atoms: _128  and  _129
REMARK   53  A    between atoms: _128  and  _131
REMARK   54  A    between atoms: _131  and  _132
REMARK   55  A    between atoms: _137  and  _138
REMARK   56  A    between atoms: _140  and  _142
REMARK   57  A    between atoms: _142  and  _143
REMARK   58  A    between atoms: _142  and  _145
REMARK   59  A    between atoms: _145  and  _146
REMARK   60  A    between atoms: _146  and  _147
REMARK   61  A    between atoms: _152  and  _154
REMARK   62  A    between atoms: _154  and  _155
REMARK   63  A    between atoms: _154  and  _157
REMARK   64  A    between atoms: _157  and  _158
REMARK   65  A    between atoms: _161  and  _163
REMARK   66  A    between atoms: _163  and  _164
REMARK   67  A    between atoms: _163  and  _166
REMARK   68  A    between atoms: _166  and  _167
REMARK   69  A    between atoms: _167  and  _168
REMARK   70  A    between atoms: _171  and  _173
REMARK   71  A    between atoms: _173  and  _174
REMARK   72  A    between atoms: _177  and  _179
REMARK   73  A    between atoms: _179  and  _180
REMARK   74  A    between atoms: _179  and  _182
REMARK   75  A    between atoms: _182  and  _183
REMARK   76  A    between atoms: _183  and  _184
REMARK   77  A    between atoms: _189  and  _191
REMARK   78  A    between atoms: _191  and  _192
REMARK   79  A    between atoms: _191  and  _194
REMARK   80  A    between atoms: _194  and  _195
REMARK   81  A    between atoms: _195  and  _196
REMARK   82  A    between atoms: _196  and  _197
REMARK   83  A    between atoms: _206  and  _208
REMARK   84  A    between atoms: _208  and  _209
REMARK   85  A    between atoms: _212  and  _214
REMARK   86  A    between atoms: _214  and  _215
REMARK   87  A    between atoms: _214  and  _217
REMARK   88  A    between atoms: _217  and  _218
REMARK   89  A    between atoms: _223  and  _224
REMARK   90  A    between atoms: _226  and  _228
REMARK   91  A    between atoms: _228  and  _229
REMARK   92  A    between atoms: _228  and  _231
REMARK   93  A    between atoms: _231  and  _232
REMARK   94  A    between atoms: _235  and  _237
REMARK   95  A    between atoms: _237  and  _238
REMARK   96  A    between atoms: _237  and  _240
REMARK   97  A    between atoms: _240  and  _241
REMARK   98  A    between atoms: _241  and  _242
REMARK   99  A    between atoms: _245  and  _247
REMARK  100  A    between atoms: _247  and  _248
REMARK  101  A    between atoms: _247  and  _250
REMARK  102  A    between atoms: _250  and  _251
REMARK  103  A    between atoms: _254  and  _256
REMARK  104  A    between atoms: _256  and  _257
REMARK  105  A    between atoms: _256  and  _259
REMARK  106  A    between atoms: _259  and  _260
REMARK  107  A    between atoms: _260  and  _261
REMARK  108  A    between atoms: _261  and  _262
REMARK  109  A    between atoms: _271  and  _273
REMARK  110  A    between atoms: _273  and  _274
REMARK  111  A    between atoms: _273  and  _276
REMARK  112  A    between atoms: _276  and  _277
REMARK  113  A    between atoms: _282  and  _284
REMARK  114  A    between atoms: _284  and  _285
REMARK  115  A    between atoms: _284  and  _287
REMARK  116  A    between atoms: _287  and  _288
REMARK  117  A    between atoms: _288  and  _289
REMARK  118  A    between atoms: _289  and  _290
REMARK  119  A    between atoms: _290  and  _291
REMARK  120  A    between atoms: _295  and  _297
REMARK  121  A    between atoms: _297  and  _298
REMARK  122  A    between atoms: _297  and  _300
REMARK  123  A    between atoms: _300  and  _301
REMARK  124  A    between atoms: _301  and  _302
REMARK  125  A    between atoms: _307  and  _309
REMARK  126  A    between atoms: _309  and  _310
REMARK  127  A    between atoms: _309  and  _312
REMARK  128  A    between atoms: _312  and  _313
REMARK  129  A    between atoms: _313  and  _314
REMARK  130  A    between atoms: _319  and  _321
REMARK  131  A    between atoms: _321  and  _322
REMARK  132  A    between atoms: _321  and  _324
REMARK  133  A    between atoms: _324  and  _325
REMARK  134  A    between atoms: _325  and  _326
REMARK  135  A    between atoms: _326  and  _327
REMARK  136  A    between atoms: _336  and  _338
REMARK  137  A    between atoms: _338  and  _339
REMARK  138  A    between atoms: _338  and  _341
REMARK  139  A    between atoms: _341  and  _342
REMARK  140  A    between atoms: _342  and  _343
REMARK  141  A    between atoms: _345  and  _347
REMARK  142  A    between atoms: _347  and  _348
REMARK  143  A    between atoms: _347  and  _350
REMARK  144  A    between atoms: _350  and  _351
REMARK  145  A    between atoms: _361  and  _363
REMARK  146  A    between atoms: _363  and  _364
REMARK  147  A    between atoms: _363  and  _366
REMARK  148  A    between atoms: _366  and  _367
REMARK  149  A    between atoms: _370  and  _372
REMARK  150  A    between atoms: _372  and  _373
REMARK  151  A    between atoms: _372  and  _375
REMARK  152  A    between atoms: _375  and  _376
REMARK  153  A    between atoms: _379  and  _381
REMARK  154  A    between atoms: _381  and  _382
REMARK  155  A    between atoms: _381  and  _384
REMARK  156  A    between atoms: _384  and  _385
REMARK  157  A    between atoms: _388  and  _390
REMARK  158  A    between atoms: _390  and  _391
REMARK  159  A    between atoms: _390  and  _393
REMARK  160  A    between atoms: _393  and  _394
REMARK  161  A    between atoms: _399  and  _400
REMARK  162  A    between atoms: _402  and  _404
REMARK  163  A    between atoms: _404  and  _405
REMARK  164  A    between atoms: _404  and  _407
REMARK  165  A    between atoms: _407  and  _408
REMARK  166  A    between atoms: _408  and  _409
REMARK  167  A    between atoms: _409  and  _410
REMARK  168  A    between atoms: _419  and  _421
REMARK  169  A    between atoms: _421  and  _422
REMARK  170  A    between atoms: _421  and  _424
REMARK  171  A    between atoms: _424  and  _425
REMARK  172  A    between atoms: _431  and  _433
REMARK  173  A    between atoms: _433  and  _434
REMARK  174  A    between atoms: _433  and  _436
REMARK  175  A    between atoms: _436  and  _437
REMARK  176  A    between atoms: _440  and  _442
REMARK  177  A    between atoms: _442  and  _443
REMARK  178  A    between atoms: _442  and  _445
REMARK  179  A    between atoms: _445  and  _446
REMARK  180  A    between atoms: _446  and  _447
REMARK  181  A    between atoms: _447  and  _448
REMARK  182  A    between atoms: _457  and  _459
REMARK  183  A    between atoms: _459  and  _460
REMARK  184  A    between atoms: _459  and  _462
REMARK  185  A    between atoms: _462  and  _463
REMARK  186  A    between atoms: _466  and  _468
REMARK  187  A    between atoms: _468  and  _469
REMARK  188  A    between atoms: _468  and  _471
REMARK  189  A    between atoms: _471  and  _472
REMARK  190  A    between atoms: _475  and  _477
REMARK  191  A    between atoms: _477  and  _478
REMARK  192  A    between atoms: _477  and  _480
REMARK  193  A    between atoms: _480  and  _481
REMARK  194  A    between atoms: _484  and  _486
REMARK  195  A    between atoms: _486  and  _487
REMARK  196  A    between atoms: _486  and  _489
REMARK  197  A    between atoms: _489  and  _490
REMARK  198  A    between atoms: _500  and  _502
REMARK  199  A    between atoms: _502  and  _503
REMARK  200  A    between atoms: _502  and  _505
REMARK  201  A    between atoms: _508  and  _510
REMARK  202  A    between atoms: _510  and  _511
REMARK  203  A    between atoms: _510  and  _513
REMARK  204  A    between atoms: _513  and  _514
REMARK  205  A    between atoms: _516  and  _518
REMARK  206  A    between atoms: _518  and  _519
REMARK  207  A    between atoms: _518  and  _521
REMARK  208  A    between atoms: _524  and  _526
REMARK  209  A    between atoms: _526  and  _527
REMARK  210  A    between atoms: _526  and  _529
REMARK  211  A    between atoms: _529  and  _530
REMARK  212  A    between atoms: _530  and  _531
REMARK  213  A    between atoms: _531  and  _532
REMARK  214  A    between atoms: _541  and  _543
REMARK  215  A    between atoms: _543  and  _544
REMARK  216  A    between atoms: _543  and  _546
REMARK  217  A    between atoms: _546  and  _547
REMARK  218  A    between atoms: _547  and  _548
REMARK  219  A    between atoms: _551  and  _553
REMARK  220  A    between atoms: _553  and  _554
REMARK  221  A    between atoms: _553  and  _556
REMARK  222  A    between atoms: _556  and  _557
REMARK  223  A    between atoms: _557  and  _558
REMARK  224  A    between atoms: _563  and  _565
REMARK  225  A    between atoms: _565  and  _566
REMARK  226  A    between atoms: _565  and  _568
REMARK  227  A    between atoms: _568  and  _569
REMARK  228  A    between atoms: _572  and  _574
REMARK  229  A    between atoms: _574  and  _575
REMARK  230  A    between atoms: _574  and  _577
REMARK  231  A    between atoms: _580  and  _582
REMARK  232  A    between atoms: _582  and  _583
REMARK  233  A    between atoms: _582  and  _585
REMARK  234  A    between atoms: _585  and  _586
REMARK  235  A    between atoms: _588  and  _590
REMARK  236  A    between atoms: _590  and  _591
REMARK  237  A    between atoms: _590  and  _593
REMARK  238  A    between atoms: _596  and  _598
REMARK  239  A    between atoms: _598  and  _599
REMARK  240  A    between atoms: _598  and  _601
REMARK  241  A    between atoms: _601  and  _602
REMARK  242  A    between atoms: _602  and  _603
REMARK  243  A    between atoms: _603  and  _604
REMARK  244  A    between atoms: _613  and  _615
REMARK  245  A    between atoms: _615  and  _616
REMARK  246  A    between atoms: _615  and  _618
REMARK  247  A    between atoms: _618  and  _619
REMARK  248  A    between atoms: _629  and  _631
REMARK  249  A    between atoms: _631  and  _632
REMARK  250  A    between atoms: _631  and  _634
REMARK  251  A    between atoms: _634  and  _635
REMARK  252  A    between atoms: _640  and  _641
REMARK  253  A    between atoms: _643  and  _645
REMARK  254  A    between atoms: _645  and  _646
REMARK  255  A    between atoms: _645  and  _648
REMARK  256  A    between atoms: _648  and  _649
REMARK  257  A    between atoms: _649  and  _650
REMARK  258  A    between atoms: _650  and  _651
REMARK  259  A    between atoms: _661  and  _662
REMARK  260  A    between atoms: _667  and  _669
REMARK  261  A    between atoms: _669  and  _670
REMARK  262  A    between atoms: _672  and  _674
REMARK  263  A    between atoms: _674  and  _675
REMARK  264  A    between atoms: _678  and  _679
REMARK  265  A    between atoms: _684  and  _686
REMARK  266  A    between atoms: _686  and  _687
REMARK  267  A    between atoms: _686  and  _689
REMARK  268  A    between atoms: _689  and  _690
REMARK  269  A    between atoms: _693  and  _695
REMARK  270  A    between atoms: _695  and  _696
REMARK  271  A    between atoms: _695  and  _698
REMARK  272  A    between atoms: _698  and  _699
REMARK  273  A    between atoms: _702  and  _704
REMARK  274  A    between atoms: _704  and  _705
REMARK  275  A    between atoms: _708  and  _710
REMARK  276  A    between atoms: _710  and  _711
REMARK  277  A    between atoms: _710  and  _713
REMARK  278  A    between atoms: _713  and  _714
REMARK  279  A    between atoms: _714  and  _715
REMARK  280  A    between atoms: _720  and  _722
REMARK  281  A    between atoms: _722  and  _723
REMARK  282  A    between atoms: _722  and  _725
REMARK                            x       y       z     vdW  Elec       q    Type
REMARK                         _______ _______ _______ _____ _____    ______ ____
ROOT
ATOM      1  O   HOH     1      -0.904  46.115  21.494  0.00  0.00    +0.000 OA
ENDROOT
TORSDOF 0
REMARK  Name = ../refined-set-2016/4w97/4w97_pocket.pdb
REMARK  282 active torsions:
REMARK  status: ('A' for Active; 'I' for Inactive)
REMARK    1  A    between atoms: _1  and  _3
REMARK    2  A    between atoms: _3  and  _4
REMARK    3  A    between atoms: _3  and  _6
REMARK    4  A    between atoms: _6  and  _7
REMARK    5  A    between atoms: _10  and  _12
REMARK    6  A    between atoms: _12  and  _13
REMARK    7  A    between atoms: _12  and  _15
REMARK    8  A    between atoms: _15  and  _16
REMARK    9  A    between atoms: _22  and  _24
REMARK   10  A    between atoms: _24  and  _25
REMARK   11  A    between atoms: _24  and  _27
REMARK   12  A    between atoms: _27  and  _28
REMARK   13  A    between atoms: _31  and  _33
REMARK   14  A    between atoms: _33  and  _34
REMARK   15  A    between atoms: _33  and  _36
REMARK   16  A    between atoms: _36  and  _37
REMARK   17  A    between atoms: _40  and  _42
REMARK   18  A    between atoms: _42  and  _43
REMARK   19  A    between atoms: _42  and  _45
REMARK   20  A    between atoms: _45  and  _46
REMARK   21  A    between atoms: _52  and  _54
REMARK   22  A    between atoms: _54  and  _55
REMARK   23  A    between atoms: _54  and  _57
REMARK   24  A    between atoms: _57  and  _58
REMARK   25  A    between atoms: _63  and  _64
REMARK   26  A    between atoms: _66  and  _68
REMARK   27  A    between atoms: _68  and  _69
REMARK   28  A    between atoms: _68  and  _71
REMARK   29  A    between atoms: _71  and  _72
REMARK   30  A    between atoms: _74  and  _76
REMARK   31  A    between atoms: _76  and  _77
REMARK   32  A    between atoms: _80  and  _82
REMARK   33  A    between atoms: _82  and  _83
REMARK   34  A    between atoms: _82  and  _85
REMARK   35  A    between atoms: _85  and  _86
REMARK   36  A    between atoms: _89  and  _91
REMARK   37  A    between atoms: _91  and  _92
REMARK   38  A    between atoms: _91  and  _94
REMARK   39  A    between atoms: _94  and  _95
REMARK   40  A    between atoms: _95  and  _96
REMARK   41  A    between atoms: _101  and  _103
REMARK   42  A    between atoms: _103  and  _104
REMARK   43  A    between atoms: _103  and  _106
REMARK   44  A    between atoms: _109  and  _111
REMARK   45  A    between atoms: _111  and  _112
REMARK   46  A    between atoms: _111  and  _114
REMARK   47  A    between atoms: _117  and  _119
REMARK   48  A    between atoms: _119  and  _120
REMARK   49  A    between atoms: _119  and  _122
REMARK   50  A    between atoms: _122  and  _123
REMARK   51  A    between atoms: _126  and  _128
REMARK   52  A    between atoms: _128  and  _129
REMARK   53  A    between atoms: _128  and  _131
REMARK   54  A    between atoms: _131  and  _132
REMARK   55  A    between atoms: _137  and  _138
REMARK   56  A    between atoms: _140  and  _142
REMARK   57  A    between atoms: _142  and  _143
REMARK   58  A    between atoms: _142  and  _145
REMARK   59  A    between atoms: _145  and  _146
REMARK   60  A    between atoms: _146  and  _147
REMARK   61  A    between atoms: _152  and  _154
REMARK   62  A    between atoms: _154  and  _155
REMARK   63  A    between atoms: _154  and  _157
REMARK   64  A    between atoms: _157  and  _158
REMARK   65  A    between atoms: _161  and  _163
REMARK   66  A    between atoms: _163  and  _164
REMARK   67  A    between atoms: _163  and  _166
REMARK   68  A    between atoms: _166  and  _167
REMARK   69  A    between atoms: _167  and  _168
REMARK   70  A    between atoms: _171  and  _173
REMARK   71  A    between atoms: _173  and  _174
REMARK   72  A    between atoms: _177  and  _179
REMARK   73  A    between atoms: _179  and  _180
REMARK   74  A    between atoms: _179  and  _182
REMARK   75  A    between atoms: _182  and  _183
REMARK   76  A    between atoms: _183  and  _184
REMARK   77  A    between atoms: _189  and  _191
REMARK   78  A    between atoms: _191  and  _192
REMARK   79  A    between atoms: _191  and  _194
REMARK   80  A    between atoms: _194  and  _195
REMARK   81  A    between atoms: _195  and  _196
REMARK   82  A    between atoms: _196  and  _197
REMARK   83  A    between atoms: _206  and  _208
REMARK   84  A    between atoms: _208  and  _209
REMARK   85  A    between atoms: _212  and  _214
REMARK   86  A    between atoms: _214  and  _215
REMARK   87  A    between atoms: _214  and  _217
REMARK   88  A    between atoms: _217  and  _218
REMARK   89  A    between atoms: _223  and  _224
REMARK   90  A    between atoms: _226  and  _228
REMARK   91  A    between atoms: _228  and  _229
REMARK   92  A    between atoms: _228  and  _231
REMARK   93  A    between atoms: _231  and  _232
REMARK   94  A    between atoms: _235  and  _237
REMARK   95  A    between atoms: _237  and  _238
REMARK   96  A    between atoms: _237  and  _240
REMARK   97  A    between atoms: _240  and  _241
REMARK   98  A    between atoms: _241  and  _242
REMARK   99  A    between atoms: _245  and  _247
REMARK  100  A    between atoms: _247  and  _248
REMARK  101  A    between atoms: _247  and  _250
REMARK  102  A    between atoms: _250  and  _251
REMARK  103  A    between atoms: _254  and  _256
REMARK  104  A    between atoms: _256  and  _257
REMARK  105  A    between atoms: _256  and  _259
REMARK  106  A    between atoms: _259  and  _260
REMARK  107  A    between atoms: _260  and  _261
REMARK  108  A    between atoms: _261  and  _262
REMARK  109  A    between atoms: _271  and  _273
REMARK  110  A    between atoms: _273  and  _274
REMARK  111  A    between atoms: _273  and  _276
REMARK  112  A    between atoms: _276  and  _277
REMARK  113  A    between atoms: _282  and  _284
REMARK  114  A    between atoms: _284  and  _285
REMARK  115  A    between atoms: _284  and  _287
REMARK  116  A    between atoms: _287  and  _288
REMARK  117  A    between atoms: _288  and  _289
REMARK  118  A    between atoms: _289  and  _290
REMARK  119  A    between atoms: _290  and  _291
REMARK  120  A    between atoms: _295  and  _297
REMARK  121  A    between atoms: _297  and  _298
REMARK  122  A    between atoms: _297  and  _300
REMARK  123  A    between atoms: _300  and  _301
REMARK  124  A    between atoms: _301  and  _302
REMARK  125  A    between atoms: _307  and  _309
REMARK  126  A    between atoms: _309  and  _310
REMARK  127  A    between atoms: _309  and  _312
REMARK  128  A    between atoms: _312  and  _313
REMARK  129  A    between atoms: _313  and  _314
REMARK  130  A    between atoms: _319  and  _321
REMARK  131  A    between atoms: _321  and  _322
REMARK  132  A    between atoms: _321  and  _324
REMARK  133  A    between atoms: _324  and  _325
REMARK  134  A    between atoms: _325  and  _326
REMARK  135  A    between atoms: _326  and  _327
REMARK  136  A    between atoms: _336  and  _338
REMARK  137  A    between atoms: _338  and  _339
REMARK  138  A    between atoms: _338  and  _341
REMARK  139  A    between atoms: _341  and  _342
REMARK  140  A    between atoms: _342  and  _343
REMARK  141  A    between atoms: _345  and  _347
REMARK  142  A    between atoms: _347  and  _348
REMARK  143  A    between atoms: _347  and  _350
REMARK  144  A    between atoms: _350  and  _351
REMARK  145  A    between atoms: _361  and  _363
REMARK  146  A    between atoms: _363  and  _364
REMARK  147  A    between atoms: _363  and  _366
REMARK  148  A    between atoms: _366  and  _367
REMARK  149  A    between atoms: _370  and  _372
REMARK  150  A    between atoms: _372  and  _373
REMARK  151  A    between atoms: _372  and  _375
REMARK  152  A    between atoms: _375  and  _376
REMARK  153  A    between atoms: _379  and  _381
REMARK  154  A    between atoms: _381  and  _382
REMARK  155  A    between atoms: _381  and  _384
REMARK  156  A    between atoms: _384  and  _385
REMARK  157  A    between atoms: _388  and  _390
REMARK  158  A    between atoms: _390  and  _391
REMARK  159  A    between atoms: _390  and  _393
REMARK  160  A    between atoms: _393  and  _394
REMARK  161  A    between atoms: _399  and  _400
REMARK  162  A    between atoms: _402  and  _404
REMARK  163  A    between atoms: _404  and  _405
REMARK  164  A    between atoms: _404  and  _407
REMARK  165  A    between atoms: _407  and  _408
REMARK  166  A    between atoms: _408  and  _409
REMARK  167  A    between atoms: _409  and  _410
REMARK  168  A    between atoms: _419  and  _421
REMARK  169  A    between atoms: _421  and  _422
REMARK  170  A    between atoms: _421  and  _424
REMARK  171  A    between atoms: _424  and  _425
REMARK  172  A    between atoms: _431  and  _433
REMARK  173  A    between atoms: _433  and  _434
REMARK  174  A    between atoms: _433  and  _436
REMARK  175  A    between atoms: _436  and  _437
REMARK  176  A    between atoms: _440  and  _442
REMARK  177  A    between atoms: _442  and  _443
REMARK  178  A    between atoms: _442  and  _445
REMARK  179  A    between atoms: _445  and  _446
REMARK  180  A    between atoms: _446  and  _447
REMARK  181  A    between atoms: _447  and  _448
REMARK  182  A    between atoms: _457  and  _459
REMARK  183  A    between atoms: _459  and  _460
REMARK  184  A    between atoms: _459  and  _462
REMARK  185  A    between atoms: _462  and  _463
REMARK  186  A    between atoms: _466  and  _468
REMARK  187  A    between atoms: _468  and  _469
REMARK  188  A    between atoms: _468  and  _471
REMARK  189  A    between atoms: _471  and  _472
REMARK  190  A    between atoms: _475  and  _477
REMARK  191  A    between atoms: _477  and  _478
REMARK  192  A    between atoms: _477  and  _480
REMARK  193  A    between atoms: _480  and  _481
REMARK  194  A    between atoms: _484  and  _486
REMARK  195  A    between atoms: _486  and  _487
REMARK  196  A    between atoms: _486  and  _489
REMARK  197  A    between atoms: _489  and  _490
REMARK  198  A    between atoms: _500  and  _502
REMARK  199  A    between atoms: _502  and  _503
REMARK  200  A    between atoms: _502  and  _505
REMARK  201  A    between atoms: _508  and  _510
REMARK  202  A    between atoms: _510  and  _511
REMARK  203  A    between atoms: _510  and  _513
REMARK  204  A    between atoms: _513  and  _514
REMARK  205  A    between atoms: _516  and  _518
REMARK  206  A    between atoms: _518  and  _519
REMARK  207  A    between atoms: _518  and  _521
REMARK  208  A    between atoms: _524  and  _526
REMARK  209  A    between atoms: _526  and  _527
REMARK  210  A    between atoms: _526  and  _529
REMARK  211  A    between atoms: _529  and  _530
REMARK  212  A    between atoms: _530  and  _531
REMARK  213  A    between atoms: _531  and  _532
REMARK  214  A    between atoms: _541  and  _543
REMARK  215  A    between atoms: _543  and  _544
REMARK  216  A    between atoms: _543  and  _546
REMARK  217  A    between atoms: _546  and  _547
REMARK  218  A    between atoms: _547  and  _548
REMARK  219  A    between atoms: _551  and  _553
REMARK  220  A    between atoms: _553  and  _554
REMARK  221  A    between atoms: _553  and  _556
REMARK  222  A    between atoms: _556  and  _557
REMARK  223  A    between atoms: _557  and  _558
REMARK  224  A    between atoms: _563  and  _565
REMARK  225  A    between atoms: _565  and  _566
REMARK  226  A    between atoms: _565  and  _568
REMARK  227  A    between atoms: _568  and  _569
REMARK  228  A    between atoms: _572  and  _574
REMARK  229  A    between atoms: _574  and  _575
REMARK  230  A    between atoms: _574  and  _577
REMARK  231  A    between atoms: _580  and  _582
REMARK  232  A    between atoms: _582  and  _583
REMARK  233  A    between atoms: _582  and  _585
REMARK  234  A    between atoms: _585  and  _586
REMARK  235  A    between atoms: _588  and  _590
REMARK  236  A    between atoms: _590  and  _591
REMARK  237  A    between atoms: _590  and  _593
REMARK  238  A    between atoms: _596  and  _598
REMARK  239  A    between atoms: _598  and  _599
REMARK  240  A    between atoms: _598  and  _601
REMARK  241  A    between atoms: _601  and  _602
REMARK  242  A    between atoms: _602  and  _603
REMARK  243  A    between atoms: _603  and  _604
REMARK  244  A    between atoms: _613  and  _615
REMARK  245  A    between atoms: _615  and  _616
REMARK  246  A    between atoms: _615  and  _618
REMARK  247  A    between atoms: _618  and  _619
REMARK  248  A    between atoms: _629  and  _631
REMARK  249  A    between atoms: _631  and  _632
REMARK  250  A    between atoms: _631  and  _634
REMARK  251  A    between atoms: _634  and  _635
REMARK  252  A    between atoms: _640  and  _641
REMARK  253  A    between atoms: _643  and  _645
REMARK  254  A    between atoms: _645  and  _646
REMARK  255  A    between atoms: _645  and  _648
REMARK  256  A    between atoms: _648  and  _649
REMARK  257  A    between atoms: _649  and  _650
REMARK  258  A    between atoms: _650  and  _651
REMARK  259  A    between atoms: _661  and  _662
REMARK  260  A    between atoms: _667  and  _669
REMARK  261  A    between atoms: _669  and  _670
REMARK  262  A    between atoms: _672  and  _674
REMARK  263  A    between atoms: _674  and  _675
REMARK  264  A    between atoms: _678  and  _679
REMARK  265  A    between atoms: _684  and  _686
REMARK  266  A    between atoms: _686  and  _687
REMARK  267  A    between atoms: _686  and  _689
REMARK  268  A    between atoms: _689  and  _690
REMARK  269  A    between atoms: _693  and  _695
REMARK  270  A    between atoms: _695  and  _696
REMARK  271  A    between atoms: _695  and  _698
REMARK  272  A    between atoms: _698  and  _699
REMARK  273  A    between atoms: _702  and  _704
REMARK  274  A    between atoms: _704  and  _705
REMARK  275  A    between atoms: _708  and  _710
REMARK  276  A    between atoms: _710  and  _711
REMARK  277  A    between atoms: _710  and  _713
REMARK  278  A    between atoms: _713  and  _714
REMARK  279  A    between atoms: _714  and  _715
REMARK  280  A    between atoms: _720  and  _722
REMARK  281  A    between atoms: _722  and  _723
REMARK  282  A    between atoms: _722  and  _725
REMARK                            x       y       z     vdW  Elec       q    Type
REMARK                         _______ _______ _______ _____ _____    ______ ____
ROOT
ATOM      1  O   HOH     1      -5.140  36.135  25.975  0.00  0.00    +0.000 OA
ENDROOT
TORSDOF 0
REMARK  Name = ../refined-set-2016/4w97/4w97_pocket.pdb
REMARK  282 active torsions:
REMARK  status: ('A' for Active; 'I' for Inactive)
REMARK    1  A    between atoms: _1  and  _3
REMARK    2  A    between atoms: _3  and  _4
REMARK    3  A    between atoms: _3  and  _6
REMARK    4  A    between atoms: _6  and  _7
REMARK    5  A    between atoms: _10  and  _12
REMARK    6  A    between atoms: _12  and  _13
REMARK    7  A    between atoms: _12  and  _15
REMARK    8  A    between atoms: _15  and  _16
REMARK    9  A    between atoms: _22  and  _24
REMARK   10  A    between atoms: _24  and  _25
REMARK   11  A    between atoms: _24  and  _27
REMARK   12  A    between atoms: _27  and  _28
REMARK   13  A    between atoms: _31  and  _33
REMARK   14  A    between atoms: _33  and  _34
REMARK   15  A    between atoms: _33  and  _36
REMARK   16  A    between atoms: _36  and  _37
REMARK   17  A    between atoms: _40  and  _42
REMARK   18  A    between atoms: _42  and  _43
REMARK   19  A    between atoms: _42  and  _45
REMARK   20  A    between atoms: _45  and  _46
REMARK   21  A    between atoms: _52  and  _54
REMARK   22  A    between atoms: _54  and  _55
REMARK   23  A    between atoms: _54  and  _57
REMARK   24  A    between atoms: _57  and  _58
REMARK   25  A    between atoms: _63  and  _64
REMARK   26  A    between atoms: _66  and  _68
REMARK   27  A    between atoms: _68  and  _69
REMARK   28  A    between atoms: _68  and  _71
REMARK   29  A    between atoms: _71  and  _72
REMARK   30  A    between atoms: _74  and  _76
REMARK   31  A    between atoms: _76  and  _77
REMARK   32  A    between atoms: _80  and  _82
REMARK   33  A    between atoms: _82  and  _83
REMARK   34  A    between atoms: _82  and  _85
REMARK   35  A    between atoms: _85  and  _86
REMARK   36  A    between atoms: _89  and  _91
REMARK   37  A    between atoms: _91  and  _92
REMARK   38  A    between atoms: _91  and  _94
REMARK   39  A    between atoms: _94  and  _95
REMARK   40  A    between atoms: _95  and  _96
REMARK   41  A    between atoms: _101  and  _103
REMARK   42  A    between atoms: _103  and  _104
REMARK   43  A    between atoms: _103  and  _106
REMARK   44  A    between atoms: _109  and  _111
REMARK   45  A    between atoms: _111  and  _112
REMARK   46  A    between atoms: _111  and  _114
REMARK   47  A    between atoms: _117  and  _119
REMARK   48  A    between atoms: _119  and  _120
REMARK   49  A    between atoms: _119  and  _122
REMARK   50  A    between atoms: _122  and  _123
REMARK   51  A    between atoms: _126  and  _128
REMARK   52  A    between atoms: _128  and  _129
REMARK   53  A    between atoms: _128  and  _131
REMARK   54  A    between atoms: _131  and  _132
REMARK   55  A    between atoms: _137  and  _138
REMARK   56  A    between atoms: _140  and  _142
REMARK   57  A    between atoms: _142  and  _143
REMARK   58  A    between atoms: _142  and  _145
REMARK   59  A    between atoms: _145  and  _146
REMARK   60  A    between atoms: _146  and  _147
REMARK   61  A    between atoms: _152  and  _154
REMARK   62  A    between atoms: _154  and  _155
REMARK   63  A    between atoms: _154  and  _157
REMARK   64  A    between atoms: _157  and  _158
REMARK   65  A    between atoms: _161  and  _163
REMARK   66  A    between atoms: _163  and  _164
REMARK   67  A    between atoms: _163  and  _166
REMARK   68  A    between atoms: _166  and  _167
REMARK   69  A    between atoms: _167  and  _168
REMARK   70  A    between atoms: _171  and  _173
REMARK   71  A    between atoms: _173  and  _174
REMARK   72  A    between atoms: _177  and  _179
REMARK   73  A    between atoms: _179  and  _180
REMARK   74  A    between atoms: _179  and  _182
REMARK   75  A    between atoms: _182  and  _183
REMARK   76  A    between atoms: _183  and  _184
REMARK   77  A    between atoms: _189  and  _191
REMARK   78  A    between atoms: _191  and  _192
REMARK   79  A    between atoms: _191  and  _194
REMARK   80  A    between atoms: _194  and  _195
REMARK   81  A    between atoms: _195  and  _196
REMARK   82  A    between atoms: _196  and  _197
REMARK   83  A    between atoms: _206  and  _208
REMARK   84  A    between atoms: _208  and  _209
REMARK   85  A    between atoms: _212  and  _214
REMARK   86  A    between atoms: _214  and  _215
REMARK   87  A    between atoms: _214  and  _217
REMARK   88  A    between atoms: _217  and  _218
REMARK   89  A    between atoms: _223  and  _224
REMARK   90  A    between atoms: _226  and  _228
REMARK   91  A    between atoms: _228  and  _229
REMARK   92  A    between atoms: _228  and  _231
REMARK   93  A    between atoms: _231  and  _232
REMARK   94  A    between atoms: _235  and  _237
REMARK   95  A    between atoms: _237  and  _238
REMARK   96  A    between atoms: _237  and  _240
REMARK   97  A    between atoms: _240  and  _241
REMARK   98  A    between atoms: _241  and  _242
REMARK   99  A    between atoms: _245  and  _247
REMARK  100  A    between atoms: _247  and  _248
REMARK  101  A    between atoms: _247  and  _250
REMARK  102  A    between atoms: _250  and  _251
REMARK  103  A    between atoms: _254  and  _256
REMARK  104  A    between atoms: _256  and  _257
REMARK  105  A    between atoms: _256  and  _259
REMARK  106  A    between atoms: _259  and  _260
REMARK  107  A    between atoms: _260  and  _261
REMARK  108  A    between atoms: _261  and  _262
REMARK  109  A    between atoms: _271  and  _273
REMARK  110  A    between atoms: _273  and  _274
REMARK  111  A    between atoms: _273  and  _276
REMARK  112  A    between atoms: _276  and  _277
REMARK  113  A    between atoms: _282  and  _284
REMARK  114  A    between atoms: _284  and  _285
REMARK  115  A    between atoms: _284  and  _287
REMARK  116  A    between atoms: _287  and  _288
REMARK  117  A    between atoms: _288  and  _289
REMARK  118  A    between atoms: _289  and  _290
REMARK  119  A    between atoms: _290  and  _291
REMARK  120  A    between atoms: _295  and  _297
REMARK  121  A    between atoms: _297  and  _298
REMARK  122  A    between atoms: _297  and  _300
REMARK  123  A    between atoms: _300  and  _301
REMARK  124  A    between atoms: _301  and  _302
REMARK  125  A    between atoms: _307  and  _309
REMARK  126  A    between atoms: _309  and  _310
REMARK  127  A    between atoms: _309  and  _312
REMARK  128  A    between atoms: _312  and  _313
REMARK  129  A    between atoms: _313  and  _314
REMARK  130  A    between atoms: _319  and  _321
REMARK  131  A    between atoms: _321  and  _322
REMARK  132  A    between atoms: _321  and  _324
REMARK  133  A    between atoms: _324  and  _325
REMARK  134  A    between atoms: _325  and  _326
REMARK  135  A    between atoms: _326  and  _327
REMARK  136  A    between atoms: _336  and  _338
REMARK  137  A    between atoms: _338  and  _339
REMARK  138  A    between atoms: _338  and  _341
REMARK  139  A    between atoms: _341  and  _342
REMARK  140  A    between atoms: _342  and  _343
REMARK  141  A    between atoms: _345  and  _347
REMARK  142  A    between atoms: _347  and  _348
REMARK  143  A    between atoms: _347  and  _350
REMARK  144  A    between atoms: _350  and  _351
REMARK  145  A    between atoms: _361  and  _363
REMARK  146  A    between atoms: _363  and  _364
REMARK  147  A    between atoms: _363  and  _366
REMARK  148  A    between atoms: _366  and  _367
REMARK  149  A    between atoms: _370  and  _372
REMARK  150  A    between atoms: _372  and  _373
REMARK  151  A    between atoms: _372  and  _375
REMARK  152  A    between atoms: _375  and  _376
REMARK  153  A    between atoms: _379  and  _381
REMARK  154  A    between atoms: _381  and  _382
REMARK  155  A    between atoms: _381  and  _384
REMARK  156  A    between atoms: _384  and  _385
REMARK  157  A    between atoms: _388  and  _390
REMARK  158  A    between atoms: _390  and  _391
REMARK  159  A    between atoms: _390  and  _393
REMARK  160  A    between atoms: _393  and  _394
REMARK  161  A    between atoms: _399  and  _400
REMARK  162  A    between atoms: _402  and  _404
REMARK  163  A    between atoms: _404  and  _405
REMARK  164  A    between atoms: _404  and  _407
REMARK  165  A    between atoms: _407  and  _408
REMARK  166  A    between atoms: _408  and  _409
REMARK  167  A    between atoms: _409  and  _410
REMARK  168  A    between atoms: _419  and  _421
REMARK  169  A    between atoms: _421  and  _422
REMARK  170  A    between atoms: _421  and  _424
REMARK  171  A    between atoms: _424  and  _425
REMARK  172  A    between atoms: _431  and  _433
REMARK  173  A    between atoms: _433  and  _434
REMARK  174  A    between atoms: _433  and  _436
REMARK  175  A    between atoms: _436  and  _437
REMARK  176  A    between atoms: _440  and  _442
REMARK  177  A    between atoms: _442  and  _443
REMARK  178  A    between atoms: _442  and  _445
REMARK  179  A    between atoms: _445  and  _446
REMARK  180  A    between atoms: _446  and  _447
REMARK  181  A    between atoms: _447  and  _448
REMARK  182  A    between atoms: _457  and  _459
REMARK  183  A    between atoms: _459  and  _460
REMARK  184  A    between atoms: _459  and  _462
REMARK  185  A    between atoms: _462  and  _463
REMARK  186  A    between atoms: _466  and  _468
REMARK  187  A    between atoms: _468  and  _469
REMARK  188  A    between atoms: _468  and  _471
REMARK  189  A    between atoms: _471  and  _472
REMARK  190  A    between atoms: _475  and  _477
REMARK  191  A    between atoms: _477  and  _478
REMARK  192  A    between atoms: _477  and  _480
REMARK  193  A    between atoms: _480  and  _481
REMARK  194  A    between atoms: _484  and  _486
REMARK  195  A    between atoms: _486  and  _487
REMARK  196  A    between atoms: _486  and  _489
REMARK  197  A    between atoms: _489  and  _490
REMARK  198  A    between atoms: _500  and  _502
REMARK  199  A    between atoms: _502  and  _503
REMARK  200  A    between atoms: _502  and  _505
REMARK  201  A    between atoms: _508  and  _510
REMARK  202  A    between atoms: _510  and  _511
REMARK  203  A    between atoms: _510  and  _513
REMARK  204  A    between atoms: _513  and  _514
REMARK  205  A    between atoms: _516  and  _518
REMARK  206  A    between atoms: _518  and  _519
REMARK  207  A    between atoms: _518  and  _521
REMARK  208  A    between atoms: _524  and  _526
REMARK  209  A    between atoms: _526  and  _527
REMARK  210  A    between atoms: _526  and  _529
REMARK  211  A    between atoms: _529  and  _530
REMARK  212  A    between atoms: _530  and  _531
REMARK  213  A    between atoms: _531  and  _532
REMARK  214  A    between atoms: _541  and  _543
REMARK  215  A    between atoms: _543  and  _544
REMARK  216  A    between atoms: _543  and  _546
REMARK  217  A    between atoms: _546  and  _547
REMARK  218  A    between atoms: _547  and  _548
REMARK  219  A    between atoms: _551  and  _553
REMARK  220  A    between atoms: _553  and  _554
REMARK  221  A    between atoms: _553  and  _556
REMARK  222  A    between atoms: _556  and  _557
REMARK  223  A    between atoms: _557  and  _558
REMARK  224  A    between atoms: _563  and  _565
REMARK  225  A    between atoms: _565  and  _566
REMARK  226  A    between atoms: _565  and  _568
REMARK  227  A    between atoms: _568  and  _569
REMARK  228  A    between atoms: _572  and  _574
REMARK  229  A    between atoms: _574  and  _575
REMARK  230  A    between atoms: _574  and  _577
REMARK  231  A    between atoms: _580  and  _582
REMARK  232  A    between atoms: _582  and  _583
REMARK  233  A    between atoms: _582  and  _585
REMARK  234  A    between atoms: _585  and  _586
REMARK  235  A    between atoms: _588  and  _590
REMARK  236  A    between atoms: _590  and  _591
REMARK  237  A    between atoms: _590  and  _593
REMARK  238  A    between atoms: _596  and  _598
REMARK  239  A    between atoms: _598  and  _599
REMARK  240  A    between atoms: _598  and  _601
REMARK  241  A    between atoms: _601  and  _602
REMARK  242  A    between atoms: _602  and  _603
REMARK  243  A    between atoms: _603  and  _604
REMARK  244  A    between atoms: _613  and  _615
REMARK  245  A    between atoms: _615  and  _616
REMARK  246  A    between atoms: _615  and  _618
REMARK  247  A    between atoms: _618  and  _619
REMARK  248  A    between atoms: _629  and  _631
REMARK  249  A    between atoms: _631  and  _632
REMARK  250  A    between atoms: _631  and  _634
REMARK  251  A    between atoms: _634  and  _635
REMARK  252  A    between atoms: _640  and  _641
REMARK  253  A    between atoms: _643  and  _645
REMARK  254  A    between atoms: _645  and  _646
REMARK  255  A    between atoms: _645  and  _648
REMARK  256  A    between atoms: _648  and  _649
REMARK  257  A    between atoms: _649  and  _650
REMARK  258  A    between atoms: _650  and  _651
REMARK  259  A    between atoms: _661  and  _662
REMARK  260  A    between atoms: _667  and  _669
REMARK  261  A    between atoms: _669  and  _670
REMARK  262  A    between atoms: _672  and  _674
REMARK  263  A    between atoms: _674  and  _675
REMARK  264  A    between atoms: _678  and  _679
REMARK  265  A    between atoms: _684  and  _686
REMARK  266  A    between atoms: _686  and  _687
REMARK  267  A    between atoms: _686  and  _689
REMARK  268  A    between atoms: _689  and  _690
REMARK  269  A    between atoms: _693  and  _695
REMARK  270  A    between atoms: _695  and  _696
REMARK  271  A    between atoms: _695  and  _698
REMARK  272  A    between atoms: _698  and  _699
REMARK  273  A    between atoms: _702  and  _704
REMARK  274  A    between atoms: _704  and  _705
REMARK  275  A    between atoms: _708  and  _710
REMARK  276  A    between atoms: _710  and  _711
REMARK  277  A    between atoms: _710  and  _713
REMARK  278  A    between atoms: _713  and  _714
REMARK  279  A    between atoms: _714  and  _715
REMARK  280  A    between atoms: _720  and  _722
REMARK  281  A    between atoms: _722  and  _723
REMARK  282  A    between atoms: _722  and  _725
REMARK                            x       y       z     vdW  Elec       q    Type
REMARK                         _______ _______ _______ _____ _____    ______ ____
ROOT
ATOM      1  O   HOH     1      -8.794  53.434  18.350  0.00  0.00    +0.000 OA
ENDROOT
TORSDOF 0
REMARK  Name = ../refined-set-2016/4w97/4w97_pocket.pdb
REMARK  282 active torsions:
REMARK  status: ('A' for Active; 'I' for Inactive)
REMARK    1  A    between atoms: _1  and  _3
REMARK    2  A    between atoms: _3  and  _4
REMARK    3  A    between atoms: _3  and  _6
REMARK    4  A    between atoms: _6  and  _7
REMARK    5  A    between atoms: _10  and  _12
REMARK    6  A    between atoms: _12  and  _13
REMARK    7  A    between atoms: _12  and  _15
REMARK    8  A    between atoms: _15  and  _16
REMARK    9  A    between atoms: _22  and  _24
REMARK   10  A    between atoms: _24  and  _25
REMARK   11  A    between atoms: _24  and  _27
REMARK   12  A    between atoms: _27  and  _28
REMARK   13  A    between atoms: _31  and  _33
REMARK   14  A    between atoms: _33  and  _34
REMARK   15  A    between atoms: _33  and  _36
REMARK   16  A    between atoms: _36  and  _37
REMARK   17  A    between atoms: _40  and  _42
REMARK   18  A    between atoms: _42  and  _43
REMARK   19  A    between atoms: _42  and  _45
REMARK   20  A    between atoms: _45  and  _46
REMARK   21  A    between atoms: _52  and  _54
REMARK   22  A    between atoms: _54  and  _55
REMARK   23  A    between atoms: _54  and  _57
REMARK   24  A    between atoms: _57  and  _58
REMARK   25  A    between atoms: _63  and  _64
REMARK   26  A    between atoms: _66  and  _68
REMARK   27  A    between atoms: _68  and  _69
REMARK   28  A    between atoms: _68  and  _71
REMARK   29  A    between atoms: _71  and  _72
REMARK   30  A    between atoms: _74  and  _76
REMARK   31  A    between atoms: _76  and  _77
REMARK   32  A    between atoms: _80  and  _82
REMARK   33  A    between atoms: _82  and  _83
REMARK   34  A    between atoms: _82  and  _85
REMARK   35  A    between atoms: _85  and  _86
REMARK   36  A    between atoms: _89  and  _91
REMARK   37  A    between atoms: _91  and  _92
REMARK   38  A    between atoms: _91  and  _94
REMARK   39  A    between atoms: _94  and  _95
REMARK   40  A    between atoms: _95  and  _96
REMARK   41  A    between atoms: _101  and  _103
REMARK   42  A    between atoms: _103  and  _104
REMARK   43  A    between atoms: _103  and  _106
REMARK   44  A    between atoms: _109  and  _111
REMARK   45  A    between atoms: _111  and  _112
REMARK   46  A    between atoms: _111  and  _114
REMARK   47  A    between atoms: _117  and  _119
REMARK   48  A    between atoms: _119  and  _120
REMARK   49  A    between atoms: _119  and  _122
REMARK   50  A    between atoms: _122  and  _123
REMARK   51  A    between atoms: _126  and  _128
REMARK   52  A    between atoms: _128  and  _129
REMARK   53  A    between atoms: _128  and  _131
REMARK   54  A    between atoms: _131  and  _132
REMARK   55  A    between atoms: _137  and  _138
REMARK   56  A    between atoms: _140  and  _142
REMARK   57  A    between atoms: _142  and  _143
REMARK   58  A    between atoms: _142  and  _145
REMARK   59  A    between atoms: _145  and  _146
REMARK   60  A    between atoms: _146  and  _147
REMARK   61  A    between atoms: _152  and  _154
REMARK   62  A    between atoms: _154  and  _155
REMARK   63  A    between atoms: _154  and  _157
REMARK   64  A    between atoms: _157  and  _158
REMARK   65  A    between atoms: _161  and  _163
REMARK   66  A    between atoms: _163  and  _164
REMARK   67  A    between atoms: _163  and  _166
REMARK   68  A    between atoms: _166  and  _167
REMARK   69  A    between atoms: _167  and  _168
REMARK   70  A    between atoms: _171  and  _173
REMARK   71  A    between atoms: _173  and  _174
REMARK   72  A    between atoms: _177  and  _179
REMARK   73  A    between atoms: _179  and  _180
REMARK   74  A    between atoms: _179  and  _182
REMARK   75  A    between atoms: _182  and  _183
REMARK   76  A    between atoms: _183  and  _184
REMARK   77  A    between atoms: _189  and  _191
REMARK   78  A    between atoms: _191  and  _192
REMARK   79  A    between atoms: _191  and  _194
REMARK   80  A    between atoms: _194  and  _195
REMARK   81  A    between atoms: _195  and  _196
REMARK   82  A    between atoms: _196  and  _197
REMARK   83  A    between atoms: _206  and  _208
REMARK   84  A    between atoms: _208  and  _209
REMARK   85  A    between atoms: _212  and  _214
REMARK   86  A    between atoms: _214  and  _215
REMARK   87  A    between atoms: _214  and  _217
REMARK   88  A    between atoms: _217  and  _218
REMARK   89  A    between atoms: _223  and  _224
REMARK   90  A    between atoms: _226  and  _228
REMARK   91  A    between atoms: _228  and  _229
REMARK   92  A    between atoms: _228  and  _231
REMARK   93  A    between atoms: _231  and  _232
REMARK   94  A    between atoms: _235  and  _237
REMARK   95  A    between atoms: _237  and  _238
REMARK   96  A    between atoms: _237  and  _240
REMARK   97  A    between atoms: _240  and  _241
REMARK   98  A    between atoms: _241  and  _242
REMARK   99  A    between atoms: _245  and  _247
REMARK  100  A    between atoms: _247  and  _248
REMARK  101  A    between atoms: _247  and  _250
REMARK  102  A    between atoms: _250  and  _251
REMARK  103  A    between atoms: _254  and  _256
REMARK  104  A    between atoms: _256  and  _257
REMARK  105  A    between atoms: _256  and  _259
REMARK  106  A    between atoms: _259  and  _260
REMARK  107  A    between atoms: _260  and  _261
REMARK  108  A    between atoms: _261  and  _262
REMARK  109  A    between atoms: _271  and  _273
REMARK  110  A    between atoms: _273  and  _274
REMARK  111  A    between atoms: _273  and  _276
REMARK  112  A    between atoms: _276  and  _277
REMARK  113  A    between atoms: _282  and  _284
REMARK  114  A    between atoms: _284  and  _285
REMARK  115  A    between atoms: _284  and  _287
REMARK  116  A    between atoms: _287  and  _288
REMARK  117  A    between atoms: _288  and  _289
REMARK  118  A    between atoms: _289  and  _290
REMARK  119  A    between atoms: _290  and  _291
REMARK  120  A    between atoms: _295  and  _297
REMARK  121  A    between atoms: _297  and  _298
REMARK  122  A    between atoms: _297  and  _300
REMARK  123  A    between atoms: _300  and  _301
REMARK  124  A    between atoms: _301  and  _302
REMARK  125  A    between atoms: _307  and  _309
REMARK  126  A    between atoms: _309  and  _310
REMARK  127  A    between atoms: _309  and  _312
REMARK  128  A    between atoms: _312  and  _313
REMARK  129  A    between atoms: _313  and  _314
REMARK  130  A    between atoms: _319  and  _321
REMARK  131  A    between atoms: _321  and  _322
REMARK  132  A    between atoms: _321  and  _324
REMARK  133  A    between atoms: _324  and  _325
REMARK  134  A    between atoms: _325  and  _326
REMARK  135  A    between atoms: _326  and  _327
REMARK  136  A    between atoms: _336  and  _338
REMARK  137  A    between atoms: _338  and  _339
REMARK  138  A    between atoms: _338  and  _341
REMARK  139  A    between atoms: _341  and  _342
REMARK  140  A    between atoms: _342  and  _343
REMARK  141  A    between atoms: _345  and  _347
REMARK  142  A    between atoms: _347  and  _348
REMARK  143  A    between atoms: _347  and  _350
REMARK  144  A    between atoms: _350  and  _351
REMARK  145  A    between atoms: _361  and  _363
REMARK  146  A    between atoms: _363  and  _364
REMARK  147  A    between atoms: _363  and  _366
REMARK  148  A    between atoms: _366  and  _367
REMARK  149  A    between atoms: _370  and  _372
REMARK  150  A    between atoms: _372  and  _373
REMARK  151  A    between atoms: _372  and  _375
REMARK  152  A    between atoms: _375  and  _376
REMARK  153  A    between atoms: _379  and  _381
REMARK  154  A    between atoms: _381  and  _382
REMARK  155  A    between atoms: _381  and  _384
REMARK  156  A    between atoms: _384  and  _385
REMARK  157  A    between atoms: _388  and  _390
REMARK  158  A    between atoms: _390  and  _391
REMARK  159  A    between atoms: _390  and  _393
REMARK  160  A    between atoms: _393  and  _394
REMARK  161  A    between atoms: _399  and  _400
REMARK  162  A    between atoms: _402  and  _404
REMARK  163  A    between atoms: _404  and  _405
REMARK  164  A    between atoms: _404  and  _407
REMARK  165  A    between atoms: _407  and  _408
REMARK  166  A    between atoms: _408  and  _409
REMARK  167  A    between atoms: _409  and  _410
REMARK  168  A    between atoms: _419  and  _421
REMARK  169  A    between atoms: _421  and  _422
REMARK  170  A    between atoms: _421  and  _424
REMARK  171  A    between atoms: _424  and  _425
REMARK  172  A    between atoms: _431  and  _433
REMARK  173  A    between atoms: _433  and  _434
REMARK  174  A    between atoms: _433  and  _436
REMARK  175  A    between atoms: _436  and  _437
REMARK  176  A    between atoms: _440  and  _442
REMARK  177  A    between atoms: _442  and  _443
REMARK  178  A    between atoms: _442  and  _445
REMARK  179  A    between atoms: _445  and  _446
REMARK  180  A    between atoms: _446  and  _447
REMARK  181  A    between atoms: _447  and  _448
REMARK  182  A    between atoms: _457  and  _459
REMARK  183  A    between atoms: _459  and  _460
REMARK  184  A    between atoms: _459  and  _462
REMARK  185  A    between atoms: _462  and  _463
REMARK  186  A    between atoms: _466  and  _468
REMARK  187  A    between atoms: _468  and  _469
REMARK  188  A    between atoms: _468  and  _471
REMARK  189  A    between atoms: _471  and  _472
REMARK  190  A    between atoms: _475  and  _477
REMARK  191  A    between atoms: _477  and  _478
REMARK  192  A    between atoms: _477  and  _480
REMARK  193  A    between atoms: _480  and  _481
REMARK  194  A    between atoms: _484  and  _486
REMARK  195  A    between atoms: _486  and  _487
REMARK  196  A    between atoms: _486  and  _489
REMARK  197  A    between atoms: _489  and  _490
REMARK  198  A    between atoms: _500  and  _502
REMARK  199  A    between atoms: _502  and  _503
REMARK  200  A    between atoms: _502  and  _505
REMARK  201  A    between atoms: _508  and  _510
REMARK  202  A    between atoms: _510  and  _511
REMARK  203  A    between atoms: _510  and  _513
REMARK  204  A    between atoms: _513  and  _514
REMARK  205  A    between atoms: _516  and  _518
REMARK  206  A    between atoms: _518  and  _519
REMARK  207  A    between atoms: _518  and  _521
REMARK  208  A    between atoms: _524  and  _526
REMARK  209  A    between atoms: _526  and  _527
REMARK  210  A    between atoms: _526  and  _529
REMARK  211  A    between atoms: _529  and  _530
REMARK  212  A    between atoms: _530  and  _531
REMARK  213  A    between atoms: _531  and  _532
REMARK  214  A    between atoms: _541  and  _543
REMARK  215  A    between atoms: _543  and  _544
REMARK  216  A    between atoms: _543  and  _546
REMARK  217  A    between atoms: _546  and  _547
REMARK  218  A    between atoms: _547  and  _548
REMARK  219  A    between atoms: _551  and  _553
REMARK  220  A    between atoms: _553  and  _554
REMARK  221  A    between atoms: _553  and  _556
REMARK  222  A    between atoms: _556  and  _557
REMARK  223  A    between atoms: _557  and  _558
REMARK  224  A    between atoms: _563  and  _565
REMARK  225  A    between atoms: _565  and  _566
REMARK  226  A    between atoms: _565  and  _568
REMARK  227  A    between atoms: _568  and  _569
REMARK  228  A    between atoms: _572  and  _574
REMARK  229  A    between atoms: _574  and  _575
REMARK  230  A    between atoms: _574  and  _577
REMARK  231  A    between atoms: _580  and  _582
REMARK  232  A    between atoms: _582  and  _583
REMARK  233  A    between atoms: _582  and  _585
REMARK  234  A    between atoms: _585  and  _586
REMARK  235  A    between atoms: _588  and  _590
REMARK  236  A    between atoms: _590  and  _591
REMARK  237  A    between atoms: _590  and  _593
REMARK  238  A    between atoms: _596  and  _598
REMARK  239  A    between atoms: _598  and  _599
REMARK  240  A    between atoms: _598  and  _601
REMARK  241  A    between atoms: _601  and  _602
REMARK  242  A    between atoms: _602  and  _603
REMARK  243  A    between atoms: _603  and  _604
REMARK  244  A    between atoms: _613  and  _615
REMARK  245  A    between atoms: _615  and  _616
REMARK  246  A    between atoms: _615  and  _618
REMARK  247  A    between atoms: _618  and  _619
REMARK  248  A    between atoms: _629  and  _631
REMARK  249  A    between atoms: _631  and  _632
REMARK  250  A    between atoms: _631  and  _634
REMARK  251  A    between atoms: _634  and  _635
REMARK  252  A    between atoms: _640  and  _641
REMARK  253  A    between atoms: _643  and  _645
REMARK  254  A    between atoms: _645  and  _646
REMARK  255  A    between atoms: _645  and  _648
REMARK  256  A    between atoms: _648  and  _649
REMARK  257  A    between atoms: _649  and  _650
REMARK  258  A    between atoms: _650  and  _651
REMARK  259  A    between atoms: _661  and  _662
REMARK  260  A    between atoms: _667  and  _669
REMARK  261  A    between atoms: _669  and  _670
REMARK  262  A    between atoms: _672  and  _674
REMARK  263  A    between atoms: _674  and  _675
REMARK  264  A    between atoms: _678  and  _679
REMARK  265  A    between atoms: _684  and  _686
REMARK  266  A    between atoms: _686  and  _687
REMARK  267  A    between atoms: _686  and  _689
REMARK  268  A    between atoms: _689  and  _690
REMARK  269  A    between atoms: _693  and  _695
REMARK  270  A    between atoms: _695  and  _696
REMARK  271  A    between atoms: _695  and  _698
REMARK  272  A    between atoms: _698  and  _699
REMARK  273  A    between atoms: _702  and  _704
REMARK  274  A    between atoms: _704  and  _705
REMARK  275  A    between atoms: _708  and  _710
REMARK  276  A    between atoms: _710  and  _711
REMARK  277  A    between atoms: _710  and  _713
REMARK  278  A    between atoms: _713  and  _714
REMARK  279  A    between atoms: _714  and  _715
REMARK  280  A    between atoms: _720  and  _722
REMARK  281  A    between atoms: _722  and  _723
REMARK  282  A    between atoms: _722  and  _725
REMARK                            x       y       z     vdW  Elec       q    Type
REMARK                         _______ _______ _______ _____ _____    ______ ____
ROOT
ATOM      1  O   HOH     1       3.311  38.650  14.473  0.00  0.00    +0.000 OA
ENDROOT
TORSDOF 0
REMARK  Name = ../refined-set-2016/4w97/4w97_pocket.pdb
REMARK  282 active torsions:
REMARK  status: ('A' for Active; 'I' for Inactive)
REMARK    1  A    between atoms: _1  and  _3
REMARK    2  A    between atoms: _3  and  _4
REMARK    3  A    between atoms: _3  and  _6
REMARK    4  A    between atoms: _6  and  _7
REMARK    5  A    between atoms: _10  and  _12
REMARK    6  A    between atoms: _12  and  _13
REMARK    7  A    between atoms: _12  and  _15
REMARK    8  A    between atoms: _15  and  _16
REMARK    9  A    between atoms: _22  and  _24
REMARK   10  A    between atoms: _24  and  _25
REMARK   11  A    between atoms: _24  and  _27
REMARK   12  A    between atoms: _27  and  _28
REMARK   13  A    between atoms: _31  and  _33
REMARK   14  A    between atoms: _33  and  _34
REMARK   15  A    between atoms: _33  and  _36
REMARK   16  A    between atoms: _36  and  _37
REMARK   17  A    between atoms: _40  and  _42
REMARK   18  A    between atoms: _42  and  _43
REMARK   19  A    between atoms: _42  and  _45
REMARK   20  A    between atoms: _45  and  _46
REMARK   21  A    between atoms: _52  and  _54
REMARK   22  A    between atoms: _54  and  _55
REMARK   23  A    between atoms: _54  and  _57
REMARK   24  A    between atoms: _57  and  _58
REMARK   25  A    between atoms: _63  and  _64
REMARK   26  A    between atoms: _66  and  _68
REMARK   27  A    between atoms: _68  and  _69
REMARK   28  A    between atoms: _68  and  _71
REMARK   29  A    between atoms: _71  and  _72
REMARK   30  A    between atoms: _74  and  _76
REMARK   31  A    between atoms: _76  and  _77
REMARK   32  A    between atoms: _80  and  _82
REMARK   33  A    between atoms: _82  and  _83
REMARK   34  A    between atoms: _82  and  _85
REMARK   35  A    between atoms: _85  and  _86
REMARK   36  A    between atoms: _89  and  _91
REMARK   37  A    between atoms: _91  and  _92
REMARK   38  A    between atoms: _91  and  _94
REMARK   39  A    between atoms: _94  and  _95
REMARK   40  A    between atoms: _95  and  _96
REMARK   41  A    between atoms: _101  and  _103
REMARK   42  A    between atoms: _103  and  _104
REMARK   43  A    between atoms: _103  and  _106
REMARK   44  A    between atoms: _109  and  _111
REMARK   45  A    between atoms: _111  and  _112
REMARK   46  A    between atoms: _111  and  _114
REMARK   47  A    between atoms: _117  and  _119
REMARK   48  A    between atoms: _119  and  _120
REMARK   49  A    between atoms: _119  and  _122
REMARK   50  A    between atoms: _122  and  _123
REMARK   51  A    between atoms: _126  and  _128
REMARK   52  A    between atoms: _128  and  _129
REMARK   53  A    between atoms: _128  and  _131
REMARK   54  A    between atoms: _131  and  _132
REMARK   55  A    between atoms: _137  and  _138
REMARK   56  A    between atoms: _140  and  _142
REMARK   57  A    between atoms: _142  and  _143
REMARK   58  A    between atoms: _142  and  _145
REMARK   59  A    between atoms: _145  and  _146
REMARK   60  A    between atoms: _146  and  _147
REMARK   61  A    between atoms: _152  and  _154
REMARK   62  A    between atoms: _154  and  _155
REMARK   63  A    between atoms: _154  and  _157
REMARK   64  A    between atoms: _157  and  _158
REMARK   65  A    between atoms: _161  and  _163
REMARK   66  A    between atoms: _163  and  _164
REMARK   67  A    between atoms: _163  and  _166
REMARK   68  A    between atoms: _166  and  _167
REMARK   69  A    between atoms: _167  and  _168
REMARK   70  A    between atoms: _171  and  _173
REMARK   71  A    between atoms: _173  and  _174
REMARK   72  A    between atoms: _177  and  _179
REMARK   73  A    between atoms: _179  and  _180
REMARK   74  A    between atoms: _179  and  _182
REMARK   75  A    between atoms: _182  and  _183
REMARK   76  A    between atoms: _183  and  _184
REMARK   77  A    between atoms: _189  and  _191
REMARK   78  A    between atoms: _191  and  _192
REMARK   79  A    between atoms: _191  and  _194
REMARK   80  A    between atoms: _194  and  _195
REMARK   81  A    between atoms: _195  and  _196
REMARK   82  A    between atoms: _196  and  _197
REMARK   83  A    between atoms: _206  and  _208
REMARK   84  A    between atoms: _208  and  _209
REMARK   85  A    between atoms: _212  and  _214
REMARK   86  A    between atoms: _214  and  _215
REMARK   87  A    between atoms: _214  and  _217
REMARK   88  A    between atoms: _217  and  _218
REMARK   89  A    between atoms: _223  and  _224
REMARK   90  A    between atoms: _226  and  _228
REMARK   91  A    between atoms: _228  and  _229
REMARK   92  A    between atoms: _228  and  _231
REMARK   93  A    between atoms: _231  and  _232
REMARK   94  A    between atoms: _235  and  _237
REMARK   95  A    between atoms: _237  and  _238
REMARK   96  A    between atoms: _237  and  _240
REMARK   97  A    between atoms: _240  and  _241
REMARK   98  A    between atoms: _241  and  _242
REMARK   99  A    between atoms: _245  and  _247
REMARK  100  A    between atoms: _247  and  _248
REMARK  101  A    between atoms: _247  and  _250
REMARK  102  A    between atoms: _250  and  _251
REMARK  103  A    between atoms: _254  and  _256
REMARK  104  A    between atoms: _256  and  _257
REMARK  105  A    between atoms: _256  and  _259
REMARK  106  A    between atoms: _259  and  _260
REMARK  107  A    between atoms: _260  and  _261
REMARK  108  A    between atoms: _261  and  _262
REMARK  109  A    between atoms: _271  and  _273
REMARK  110  A    between atoms: _273  and  _274
REMARK  111  A    between atoms: _273  and  _276
REMARK  112  A    between atoms: _276  and  _277
REMARK  113  A    between atoms: _282  and  _284
REMARK  114  A    between atoms: _284  and  _285
REMARK  115  A    between atoms: _284  and  _287
REMARK  116  A    between atoms: _287  and  _288
REMARK  117  A    between atoms: _288  and  _289
REMARK  118  A    between atoms: _289  and  _290
REMARK  119  A    between atoms: _290  and  _291
REMARK  120  A    between atoms: _295  and  _297
REMARK  121  A    between atoms: _297  and  _298
REMARK  122  A    between atoms: _297  and  _300
REMARK  123  A    between atoms: _300  and  _301
REMARK  124  A    between atoms: _301  and  _302
REMARK  125  A    between atoms: _307  and  _309
REMARK  126  A    between atoms: _309  and  _310
REMARK  127  A    between atoms: _309  and  _312
REMARK  128  A    between atoms: _312  and  _313
REMARK  129  A    between atoms: _313  and  _314
REMARK  130  A    between atoms: _319  and  _321
REMARK  131  A    between atoms: _321  and  _322
REMARK  132  A    between atoms: _321  and  _324
REMARK  133  A    between atoms: _324  and  _325
REMARK  134  A    between atoms: _325  and  _326
REMARK  135  A    between atoms: _326  and  _327
REMARK  136  A    between atoms: _336  and  _338
REMARK  137  A    between atoms: _338  and  _339
REMARK  138  A    between atoms: _338  and  _341
REMARK  139  A    between atoms: _341  and  _342
REMARK  140  A    between atoms: _342  and  _343
REMARK  141  A    between atoms: _345  and  _347
REMARK  142  A    between atoms: _347  and  _348
REMARK  143  A    between atoms: _347  and  _350
REMARK  144  A    between atoms: _350  and  _351
REMARK  145  A    between atoms: _361  and  _363
REMARK  146  A    between atoms: _363  and  _364
REMARK  147  A    between atoms: _363  and  _366
REMARK  148  A    between atoms: _366  and  _367
REMARK  149  A    between atoms: _370  and  _372
REMARK  150  A    between atoms: _372  and  _373
REMARK  151  A    between atoms: _372  and  _375
REMARK  152  A    between atoms: _375  and  _376
REMARK  153  A    between atoms: _379  and  _381
REMARK  154  A    between atoms: _381  and  _382
REMARK  155  A    between atoms: _381  and  _384
REMARK  156  A    between atoms: _384  and  _385
REMARK  157  A    between atoms: _388  and  _390
REMARK  158  A    between atoms: _390  and  _391
REMARK  159  A    between atoms: _390  and  _393
REMARK  160  A    between atoms: _393  and  _394
REMARK  161  A    between atoms: _399  and  _400
REMARK  162  A    between atoms: _402  and  _404
REMARK  163  A    between atoms: _404  and  _405
REMARK  164  A    between atoms: _404  and  _407
REMARK  165  A    between atoms: _407  and  _408
REMARK  166  A    between atoms: _408  and  _409
REMARK  167  A    between atoms: _409  and  _410
REMARK  168  A    between atoms: _419  and  _421
REMARK  169  A    between atoms: _421  and  _422
REMARK  170  A    between atoms: _421  and  _424
REMARK  171  A    between atoms: _424  and  _425
REMARK  172  A    between atoms: _431  and  _433
REMARK  173  A    between atoms: _433  and  _434
REMARK  174  A    between atoms: _433  and  _436
REMARK  175  A    between atoms: _436  and  _437
REMARK  176  A    between atoms: _440  and  _442
REMARK  177  A    between atoms: _442  and  _443
REMARK  178  A    between atoms: _442  and  _445
REMARK  179  A    between atoms: _445  and  _446
REMARK  180  A    between atoms: _446  and  _447
REMARK  181  A    between atoms: _447  and  _448
REMARK  182  A    between atoms: _457  and  _459
REMARK  183  A    between atoms: _459  and  _460
REMARK  184  A    between atoms: _459  and  _462
REMARK  185  A    between atoms: _462  and  _463
REMARK  186  A    between atoms: _466  and  _468
REMARK  187  A    between atoms: _468  and  _469
REMARK  188  A    between atoms: _468  and  _471
REMARK  189  A    between atoms: _471  and  _472
REMARK  190  A    between atoms: _475  and  _477
REMARK  191  A    between atoms: _477  and  _478
REMARK  192  A    between atoms: _477  and  _480
REMARK  193  A    between atoms: _480  and  _481
REMARK  194  A    between atoms: _484  and  _486
REMARK  195  A    between atoms: _486  and  _487
REMARK  196  A    between atoms: _486  and  _489
REMARK  197  A    between atoms: _489  and  _490
REMARK  198  A    between atoms: _500  and  _502
REMARK  199  A    between atoms: _502  and  _503
REMARK  200  A    between atoms: _502  and  _505
REMARK  201  A    between atoms: _508  and  _510
REMARK  202  A    between atoms: _510  and  _511
REMARK  203  A    between atoms: _510  and  _513
REMARK  204  A    between atoms: _513  and  _514
REMARK  205  A    between atoms: _516  and  _518
REMARK  206  A    between atoms: _518  and  _519
REMARK  207  A    between atoms: _518  and  _521
REMARK  208  A    between atoms: _524  and  _526
REMARK  209  A    between atoms: _526  and  _527
REMARK  210  A    between atoms: _526  and  _529
REMARK  211  A    between atoms: _529  and  _530
REMARK  212  A    between atoms: _530  and  _531
REMARK  213  A    between atoms: _531  and  _532
REMARK  214  A    between atoms: _541  and  _543
REMARK  215  A    between atoms: _543  and  _544
REMARK  216  A    between atoms: _543  and  _546
REMARK  217  A    between atoms: _546  and  _547
REMARK  218  A    between atoms: _547  and  _548
REMARK  219  A    between atoms: _551  and  _553
REMARK  220  A    between atoms: _553  and  _554
REMARK  221  A    between atoms: _553  and  _556
REMARK  222  A    between atoms: _556  and  _557
REMARK  223  A    between atoms: _557  and  _558
REMARK  224  A    between atoms: _563  and  _565
REMARK  225  A    between atoms: _565  and  _566
REMARK  226  A    between atoms: _565  and  _568
REMARK  227  A    between atoms: _568  and  _569
REMARK  228  A    between atoms: _572  and  _574
REMARK  229  A    between atoms: _574  and  _575
REMARK  230  A    between atoms: _574  and  _577
REMARK  231  A    between atoms: _580  and  _582
REMARK  232  A    between atoms: _582  and  _583
REMARK  233  A    between atoms: _582  and  _585
REMARK  234  A    between atoms: _585  and  _586
REMARK  235  A    between atoms: _588  and  _590
REMARK  236  A    between atoms: _590  and  _591
REMARK  237  A    between atoms: _590  and  _593
REMARK  238  A    between atoms: _596  and  _598
REMARK  239  A    between atoms: _598  and  _599
REMARK  240  A    between atoms: _598  and  _601
REMARK  241  A    between atoms: _601  and  _602
REMARK  242  A    between atoms: _602  and  _603
REMARK  243  A    between atoms: _603  and  _604
REMARK  244  A    between atoms: _613  and  _615
REMARK  245  A    between atoms: _615  and  _616
REMARK  246  A    between atoms: _615  and  _618
REMARK  247  A    between atoms: _618  and  _619
REMARK  248  A    between atoms: _629  and  _631
REMARK  249  A    between atoms: _631  and  _632
REMARK  250  A    between atoms: _631  and  _634
REMARK  251  A    between atoms: _634  and  _635
REMARK  252  A    between atoms: _640  and  _641
REMARK  253  A    between atoms: _643  and  _645
REMARK  254  A    between atoms: _645  and  _646
REMARK  255  A    between atoms: _645  and  _648
REMARK  256  A    between atoms: _648  and  _649
REMARK  257  A    between atoms: _649  and  _650
REMARK  258  A    between atoms: _650  and  _651
REMARK  259  A    between atoms: _661  and  _662
REMARK  260  A    between atoms: _667  and  _669
REMARK  261  A    between atoms: _669  and  _670
REMARK  262  A    between atoms: _672  and  _674
REMARK  263  A    between atoms: _674  and  _675
REMARK  264  A    between atoms: _678  and  _679
REMARK  265  A    between atoms: _684  and  _686
REMARK  266  A    between atoms: _686  and  _687
REMARK  267  A    between atoms: _686  and  _689
REMARK  268  A    between atoms: _689  and  _690
REMARK  269  A    between atoms: _693  and  _695
REMARK  270  A    between atoms: _695  and  _696
REMARK  271  A    between atoms: _695  and  _698
REMARK  272  A    between atoms: _698  and  _699
REMARK  273  A    between atoms: _702  and  _704
REMARK  274  A    between atoms: _704  and  _705
REMARK  275  A    between atoms: _708  and  _710
REMARK  276  A    between atoms: _710  and  _711
REMARK  277  A    between atoms: _710  and  _713
REMARK  278  A    between atoms: _713  and  _714
REMARK  279  A    between atoms: _714  and  _715
REMARK  280  A    between atoms: _720  and  _722
REMARK  281  A    between atoms: _722  and  _723
REMARK  282  A    between atoms: _722  and  _725
REMARK                            x       y       z     vdW  Elec       q    Type
REMARK                         _______ _______ _______ _____ _____    ______ ____
ROOT
ATOM      1  O   HOH     1       2.685  36.051  13.370  0.00  0.00    +0.000 OA
ENDROOT
TORSDOF 0
REMARK  Name = ../refined-set-2016/4w97/4w97_pocket.pdb
REMARK  282 active torsions:
REMARK  status: ('A' for Active; 'I' for Inactive)
REMARK    1  A    between atoms: _1  and  _3
REMARK    2  A    between atoms: _3  and  _4
REMARK    3  A    between atoms: _3  and  _6
REMARK    4  A    between atoms: _6  and  _7
REMARK    5  A    between atoms: _10  and  _12
REMARK    6  A    between atoms: _12  and  _13
REMARK    7  A    between atoms: _12  and  _15
REMARK    8  A    between atoms: _15  and  _16
REMARK    9  A    between atoms: _22  and  _24
REMARK   10  A    between atoms: _24  and  _25
REMARK   11  A    between atoms: _24  and  _27
REMARK   12  A    between atoms: _27  and  _28
REMARK   13  A    between atoms: _31  and  _33
REMARK   14  A    between atoms: _33  and  _34
REMARK   15  A    between atoms: _33  and  _36
REMARK   16  A    between atoms: _36  and  _37
REMARK   17  A    between atoms: _40  and  _42
REMARK   18  A    between atoms: _42  and  _43
REMARK   19  A    between atoms: _42  and  _45
REMARK   20  A    between atoms: _45  and  _46
REMARK   21  A    between atoms: _52  and  _54
REMARK   22  A    between atoms: _54  and  _55
REMARK   23  A    between atoms: _54  and  _57
REMARK   24  A    between atoms: _57  and  _58
REMARK   25  A    between atoms: _63  and  _64
REMARK   26  A    between atoms: _66  and  _68
REMARK   27  A    between atoms: _68  and  _69
REMARK   28  A    between atoms: _68  and  _71
REMARK   29  A    between atoms: _71  and  _72
REMARK   30  A    between atoms: _74  and  _76
REMARK   31  A    between atoms: _76  and  _77
REMARK   32  A    between atoms: _80  and  _82
REMARK   33  A    between atoms: _82  and  _83
REMARK   34  A    between atoms: _82  and  _85
REMARK   35  A    between atoms: _85  and  _86
REMARK   36  A    between atoms: _89  and  _91
REMARK   37  A    between atoms: _91  and  _92
REMARK   38  A    between atoms: _91  and  _94
REMARK   39  A    between atoms: _94  and  _95
REMARK   40  A    between atoms: _95  and  _96
REMARK   41  A    between atoms: _101  and  _103
REMARK   42  A    between atoms: _103  and  _104
REMARK   43  A    between atoms: _103  and  _106
REMARK   44  A    between atoms: _109  and  _111
REMARK   45  A    between atoms: _111  and  _112
REMARK   46  A    between atoms: _111  and  _114
REMARK   47  A    between atoms: _117  and  _119
REMARK   48  A    between atoms: _119  and  _120
REMARK   49  A    between atoms: _119  and  _122
REMARK   50  A    between atoms: _122  and  _123
REMARK   51  A    between atoms: _126  and  _128
REMARK   52  A    between atoms: _128  and  _129
REMARK   53  A    between atoms: _128  and  _131
REMARK   54  A    between atoms: _131  and  _132
REMARK   55  A    between atoms: _137  and  _138
REMARK   56  A    between atoms: _140  and  _142
REMARK   57  A    between atoms: _142  and  _143
REMARK   58  A    between atoms: _142  and  _145
REMARK   59  A    between atoms: _145  and  _146
REMARK   60  A    between atoms: _146  and  _147
REMARK   61  A    between atoms: _152  and  _154
REMARK   62  A    between atoms: _154  and  _155
REMARK   63  A    between atoms: _154  and  _157
REMARK   64  A    between atoms: _157  and  _158
REMARK   65  A    between atoms: _161  and  _163
REMARK   66  A    between atoms: _163  and  _164
REMARK   67  A    between atoms: _163  and  _166
REMARK   68  A    between atoms: _166  and  _167
REMARK   69  A    between atoms: _167  and  _168
REMARK   70  A    between atoms: _171  and  _173
REMARK   71  A    between atoms: _173  and  _174
REMARK   72  A    between atoms: _177  and  _179
REMARK   73  A    between atoms: _179  and  _180
REMARK   74  A    between atoms: _179  and  _182
REMARK   75  A    between atoms: _182  and  _183
REMARK   76  A    between atoms: _183  and  _184
REMARK   77  A    between atoms: _189  and  _191
REMARK   78  A    between atoms: _191  and  _192
REMARK   79  A    between atoms: _191  and  _194
REMARK   80  A    between atoms: _194  and  _195
REMARK   81  A    between atoms: _195  and  _196
REMARK   82  A    between atoms: _196  and  _197
REMARK   83  A    between atoms: _206  and  _208
REMARK   84  A    between atoms: _208  and  _209
REMARK   85  A    between atoms: _212  and  _214
REMARK   86  A    between atoms: _214  and  _215
REMARK   87  A    between atoms: _214  and  _217
REMARK   88  A    between atoms: _217  and  _218
REMARK   89  A    between atoms: _223  and  _224
REMARK   90  A    between atoms: _226  and  _228
REMARK   91  A    between atoms: _228  and  _229
REMARK   92  A    between atoms: _228  and  _231
REMARK   93  A    between atoms: _231  and  _232
REMARK   94  A    between atoms: _235  and  _237
REMARK   95  A    between atoms: _237  and  _238
REMARK   96  A    between atoms: _237  and  _240
REMARK   97  A    between atoms: _240  and  _241
REMARK   98  A    between atoms: _241  and  _242
REMARK   99  A    between atoms: _245  and  _247
REMARK  100  A    between atoms: _247  and  _248
REMARK  101  A    between atoms: _247  and  _250
REMARK  102  A    between atoms: _250  and  _251
REMARK  103  A    between atoms: _254  and  _256
REMARK  104  A    between atoms: _256  and  _257
REMARK  105  A    between atoms: _256  and  _259
REMARK  106  A    between atoms: _259  and  _260
REMARK  107  A    between atoms: _260  and  _261
REMARK  108  A    between atoms: _261  and  _262
REMARK  109  A    between atoms: _271  and  _273
REMARK  110  A    between atoms: _273  and  _274
REMARK  111  A    between atoms: _273  and  _276
REMARK  112  A    between atoms: _276  and  _277
REMARK  113  A    between atoms: _282  and  _284
REMARK  114  A    between atoms: _284  and  _285
REMARK  115  A    between atoms: _284  and  _287
REMARK  116  A    between atoms: _287  and  _288
REMARK  117  A    between atoms: _288  and  _289
REMARK  118  A    between atoms: _289  and  _290
REMARK  119  A    between atoms: _290  and  _291
REMARK  120  A    between atoms: _295  and  _297
REMARK  121  A    between atoms: _297  and  _298
REMARK  122  A    between atoms: _297  and  _300
REMARK  123  A    between atoms: _300  and  _301
REMARK  124  A    between atoms: _301  and  _302
REMARK  125  A    between atoms: _307  and  _309
REMARK  126  A    between atoms: _309  and  _310
REMARK  127  A    between atoms: _309  and  _312
REMARK  128  A    between atoms: _312  and  _313
REMARK  129  A    between atoms: _313  and  _314
REMARK  130  A    between atoms: _319  and  _321
REMARK  131  A    between atoms: _321  and  _322
REMARK  132  A    between atoms: _321  and  _324
REMARK  133  A    between atoms: _324  and  _325
REMARK  134  A    between atoms: _325  and  _326
REMARK  135  A    between atoms: _326  and  _327
REMARK  136  A    between atoms: _336  and  _338
REMARK  137  A    between atoms: _338  and  _339
REMARK  138  A    between atoms: _338  and  _341
REMARK  139  A    between atoms: _341  and  _342
REMARK  140  A    between atoms: _342  and  _343
REMARK  141  A    between atoms: _345  and  _347
REMARK  142  A    between atoms: _347  and  _348
REMARK  143  A    between atoms: _347  and  _350
REMARK  144  A    between atoms: _350  and  _351
REMARK  145  A    between atoms: _361  and  _363
REMARK  146  A    between atoms: _363  and  _364
REMARK  147  A    between atoms: _363  and  _366
REMARK  148  A    between atoms: _366  and  _367
REMARK  149  A    between atoms: _370  and  _372
REMARK  150  A    between atoms: _372  and  _373
REMARK  151  A    between atoms: _372  and  _375
REMARK  152  A    between atoms: _375  and  _376
REMARK  153  A    between atoms: _379  and  _381
REMARK  154  A    between atoms: _381  and  _382
REMARK  155  A    between atoms: _381  and  _384
REMARK  156  A    between atoms: _384  and  _385
REMARK  157  A    between atoms: _388  and  _390
REMARK  158  A    between atoms: _390  and  _391
REMARK  159  A    between atoms: _390  and  _393
REMARK  160  A    between atoms: _393  and  _394
REMARK  161  A    between atoms: _399  and  _400
REMARK  162  A    between atoms: _402  and  _404
REMARK  163  A    between atoms: _404  and  _405
REMARK  164  A    between atoms: _404  and  _407
REMARK  165  A    between atoms: _407  and  _408
REMARK  166  A    between atoms: _408  and  _409
REMARK  167  A    between atoms: _409  and  _410
REMARK  168  A    between atoms: _419  and  _421
REMARK  169  A    between atoms: _421  and  _422
REMARK  170  A    between atoms: _421  and  _424
REMARK  171  A    between atoms: _424  and  _425
REMARK  172  A    between atoms: _431  and  _433
REMARK  173  A    between atoms: _433  and  _434
REMARK  174  A    between atoms: _433  and  _436
REMARK  175  A    between atoms: _436  and  _437
REMARK  176  A    between atoms: _440  and  _442
REMARK  177  A    between atoms: _442  and  _443
REMARK  178  A    between atoms: _442  and  _445
REMARK  179  A    between atoms: _445  and  _446
REMARK  180  A    between atoms: _446  and  _447
REMARK  181  A    between atoms: _447  and  _448
REMARK  182  A    between atoms: _457  and  _459
REMARK  183  A    between atoms: _459  and  _460
REMARK  184  A    between atoms: _459  and  _462
REMARK  185  A    between atoms: _462  and  _463
REMARK  186  A    between atoms: _466  and  _468
REMARK  187  A    between atoms: _468  and  _469
REMARK  188  A    between atoms: _468  and  _471
REMARK  189  A    between atoms: _471  and  _472
REMARK  190  A    between atoms: _475  and  _477
REMARK  191  A    between atoms: _477  and  _478
REMARK  192  A    between atoms: _477  and  _480
REMARK  193  A    between atoms: _480  and  _481
REMARK  194  A    between atoms: _484  and  _486
REMARK  195  A    between atoms: _486  and  _487
REMARK  196  A    between atoms: _486  and  _489
REMARK  197  A    between atoms: _489  and  _490
REMARK  198  A    between atoms: _500  and  _502
REMARK  199  A    between atoms: _502  and  _503
REMARK  200  A    between atoms: _502  and  _505
REMARK  201  A    between atoms: _508  and  _510
REMARK  202  A    between atoms: _510  and  _511
REMARK  203  A    between atoms: _510  and  _513
REMARK  204  A    between atoms: _513  and  _514
REMARK  205  A    between atoms: _516  and  _518
REMARK  206  A    between atoms: _518  and  _519
REMARK  207  A    between atoms: _518  and  _521
REMARK  208  A    between atoms: _524  and  _526
REMARK  209  A    between atoms: _526  and  _527
REMARK  210  A    between atoms: _526  and  _529
REMARK  211  A    between atoms: _529  and  _530
REMARK  212  A    between atoms: _530  and  _531
REMARK  213  A    between atoms: _531  and  _532
REMARK  214  A    between atoms: _541  and  _543
REMARK  215  A    between atoms: _543  and  _544
REMARK  216  A    between atoms: _543  and  _546
REMARK  217  A    between atoms: _546  and  _547
REMARK  218  A    between atoms: _547  and  _548
REMARK  219  A    between atoms: _551  and  _553
REMARK  220  A    between atoms: _553  and  _554
REMARK  221  A    between atoms: _553  and  _556
REMARK  222  A    between atoms: _556  and  _557
REMARK  223  A    between atoms: _557  and  _558
REMARK  224  A    between atoms: _563  and  _565
REMARK  225  A    between atoms: _565  and  _566
REMARK  226  A    between atoms: _565  and  _568
REMARK  227  A    between atoms: _568  and  _569
REMARK  228  A    between atoms: _572  and  _574
REMARK  229  A    between atoms: _574  and  _575
REMARK  230  A    between atoms: _574  and  _577
REMARK  231  A    between atoms: _580  and  _582
REMARK  232  A    between atoms: _582  and  _583
REMARK  233  A    between atoms: _582  and  _585
REMARK  234  A    between atoms: _585  and  _586
REMARK  235  A    between atoms: _588  and  _590
REMARK  236  A    between atoms: _590  and  _591
REMARK  237  A    between atoms: _590  and  _593
REMARK  238  A    between atoms: _596  and  _598
REMARK  239  A    between atoms: _598  and  _599
REMARK  240  A    between atoms: _598  and  _601
REMARK  241  A    between atoms: _601  and  _602
REMARK  242  A    between atoms: _602  and  _603
REMARK  243  A    between atoms: _603  and  _604
REMARK  244  A    between atoms: _613  and  _615
REMARK  245  A    between atoms: _615  and  _616
REMARK  246  A    between atoms: _615  and  _618
REMARK  247  A    between atoms: _618  and  _619
REMARK  248  A    between atoms: _629  and  _631
REMARK  249  A    between atoms: _631  and  _632
REMARK  250  A    between atoms: _631  and  _634
REMARK  251  A    between atoms: _634  and  _635
REMARK  252  A    between atoms: _640  and  _641
REMARK  253  A    between atoms: _643  and  _645
REMARK  254  A    between atoms: _645  and  _646
REMARK  255  A    between atoms: _645  and  _648
REMARK  256  A    between atoms: _648  and  _649
REMARK  257  A    between atoms: _649  and  _650
REMARK  258  A    between atoms: _650  and  _651
REMARK  259  A    between atoms: _661  and  _662
REMARK  260  A    between atoms: _667  and  _669
REMARK  261  A    between atoms: _669  and  _670
REMARK  262  A    between atoms: _672  and  _674
REMARK  263  A    between atoms: _674  and  _675
REMARK  264  A    between atoms: _678  and  _679
REMARK  265  A    between atoms: _684  and  _686
REMARK  266  A    between atoms: _686  and  _687
REMARK  267  A    between atoms: _686  and  _689
REMARK  268  A    between atoms: _689  and  _690
REMARK  269  A    between atoms: _693  and  _695
REMARK  270  A    between atoms: _695  and  _696
REMARK  271  A    between atoms: _695  and  _698
REMARK  272  A    between atoms: _698  and  _699
REMARK  273  A    between atoms: _702  and  _704
REMARK  274  A    between atoms: _704  and  _705
REMARK  275  A    between atoms: _708  and  _710
REMARK  276  A    between atoms: _710  and  _711
REMARK  277  A    between atoms: _710  and  _713
REMARK  278  A    between atoms: _713  and  _714
REMARK  279  A    between atoms: _714  and  _715
REMARK  280  A    between atoms: _720  and  _722
REMARK  281  A    between atoms: _722  and  _723
REMARK  282  A    between atoms: _722  and  _725
REMARK                            x       y       z     vdW  Elec       q    Type
REMARK                         _______ _______ _______ _____ _____    ______ ____
ROOT
ATOM      1  O   HOH     1      -1.164  48.676  15.644  0.00  0.00    +0.000 OA
ENDROOT
TORSDOF 0
REMARK  Name = ../refined-set-2016/4w97/4w97_pocket.pdb
REMARK  282 active torsions:
REMARK  status: ('A' for Active; 'I' for Inactive)
REMARK    1  A    between atoms: _1  and  _3
REMARK    2  A    between atoms: _3  and  _4
REMARK    3  A    between atoms: _3  and  _6
REMARK    4  A    between atoms: _6  and  _7
REMARK    5  A    between atoms: _10  and  _12
REMARK    6  A    between atoms: _12  and  _13
REMARK    7  A    between atoms: _12  and  _15
REMARK    8  A    between atoms: _15  and  _16
REMARK    9  A    between atoms: _22  and  _24
REMARK   10  A    between atoms: _24  and  _25
REMARK   11  A    between atoms: _24  and  _27
REMARK   12  A    between atoms: _27  and  _28
REMARK   13  A    between atoms: _31  and  _33
REMARK   14  A    between atoms: _33  and  _34
REMARK   15  A    between atoms: _33  and  _36
REMARK   16  A    between atoms: _36  and  _37
REMARK   17  A    between atoms: _40  and  _42
REMARK   18  A    between atoms: _42  and  _43
REMARK   19  A    between atoms: _42  and  _45
REMARK   20  A    between atoms: _45  and  _46
REMARK   21  A    between atoms: _52  and  _54
REMARK   22  A    between atoms: _54  and  _55
REMARK   23  A    between atoms: _54  and  _57
REMARK   24  A    between atoms: _57  and  _58
REMARK   25  A    between atoms: _63  and  _64
REMARK   26  A    between atoms: _66  and  _68
REMARK   27  A    between atoms: _68  and  _69
REMARK   28  A    between atoms: _68  and  _71
REMARK   29  A    between atoms: _71  and  _72
REMARK   30  A    between atoms: _74  and  _76
REMARK   31  A    between atoms: _76  and  _77
REMARK   32  A    between atoms: _80  and  _82
REMARK   33  A    between atoms: _82  and  _83
REMARK   34  A    between atoms: _82  and  _85
REMARK   35  A    between atoms: _85  and  _86
REMARK   36  A    between atoms: _89  and  _91
REMARK   37  A    between atoms: _91  and  _92
REMARK   38  A    between atoms: _91  and  _94
REMARK   39  A    between atoms: _94  and  _95
REMARK   40  A    between atoms: _95  and  _96
REMARK   41  A    between atoms: _101  and  _103
REMARK   42  A    between atoms: _103  and  _104
REMARK   43  A    between atoms: _103  and  _106
REMARK   44  A    between atoms: _109  and  _111
REMARK   45  A    between atoms: _111  and  _112
REMARK   46  A    between atoms: _111  and  _114
REMARK   47  A    between atoms: _117  and  _119
REMARK   48  A    between atoms: _119  and  _120
REMARK   49  A    between atoms: _119  and  _122
REMARK   50  A    between atoms: _122  and  _123
REMARK   51  A    between atoms: _126  and  _128
REMARK   52  A    between atoms: _128  and  _129
REMARK   53  A    between atoms: _128  and  _131
REMARK   54  A    between atoms: _131  and  _132
REMARK   55  A    between atoms: _137  and  _138
REMARK   56  A    between atoms: _140  and  _142
REMARK   57  A    between atoms: _142  and  _143
REMARK   58  A    between atoms: _142  and  _145
REMARK   59  A    between atoms: _145  and  _146
REMARK   60  A    between atoms: _146  and  _147
REMARK   61  A    between atoms: _152  and  _154
REMARK   62  A    between atoms: _154  and  _155
REMARK   63  A    between atoms: _154  and  _157
REMARK   64  A    between atoms: _157  and  _158
REMARK   65  A    between atoms: _161  and  _163
REMARK   66  A    between atoms: _163  and  _164
REMARK   67  A    between atoms: _163  and  _166
REMARK   68  A    between atoms: _166  and  _167
REMARK   69  A    between atoms: _167  and  _168
REMARK   70  A    between atoms: _171  and  _173
REMARK   71  A    between atoms: _173  and  _174
REMARK   72  A    between atoms: _177  and  _179
REMARK   73  A    between atoms: _179  and  _180
REMARK   74  A    between atoms: _179  and  _182
REMARK   75  A    between atoms: _182  and  _183
REMARK   76  A    between atoms: _183  and  _184
REMARK   77  A    between atoms: _189  and  _191
REMARK   78  A    between atoms: _191  and  _192
REMARK   79  A    between atoms: _191  and  _194
REMARK   80  A    between atoms: _194  and  _195
REMARK   81  A    between atoms: _195  and  _196
REMARK   82  A    between atoms: _196  and  _197
REMARK   83  A    between atoms: _206  and  _208
REMARK   84  A    between atoms: _208  and  _209
REMARK   85  A    between atoms: _212  and  _214
REMARK   86  A    between atoms: _214  and  _215
REMARK   87  A    between atoms: _214  and  _217
REMARK   88  A    between atoms: _217  and  _218
REMARK   89  A    between atoms: _223  and  _224
REMARK   90  A    between atoms: _226  and  _228
REMARK   91  A    between atoms: _228  and  _229
REMARK   92  A    between atoms: _228  and  _231
REMARK   93  A    between atoms: _231  and  _232
REMARK   94  A    between atoms: _235  and  _237
REMARK   95  A    between atoms: _237  and  _238
REMARK   96  A    between atoms: _237  and  _240
REMARK   97  A    between atoms: _240  and  _241
REMARK   98  A    between atoms: _241  and  _242
REMARK   99  A    between atoms: _245  and  _247
REMARK  100  A    between atoms: _247  and  _248
REMARK  101  A    between atoms: _247  and  _250
REMARK  102  A    between atoms: _250  and  _251
REMARK  103  A    between atoms: _254  and  _256
REMARK  104  A    between atoms: _256  and  _257
REMARK  105  A    between atoms: _256  and  _259
REMARK  106  A    between atoms: _259  and  _260
REMARK  107  A    between atoms: _260  and  _261
REMARK  108  A    between atoms: _261  and  _262
REMARK  109  A    between atoms: _271  and  _273
REMARK  110  A    between atoms: _273  and  _274
REMARK  111  A    between atoms: _273  and  _276
REMARK  112  A    between atoms: _276  and  _277
REMARK  113  A    between atoms: _282  and  _284
REMARK  114  A    between atoms: _284  and  _285
REMARK  115  A    between atoms: _284  and  _287
REMARK  116  A    between atoms: _287  and  _288
REMARK  117  A    between atoms: _288  and  _289
REMARK  118  A    between atoms: _289  and  _290
REMARK  119  A    between atoms: _290  and  _291
REMARK  120  A    between atoms: _295  and  _297
REMARK  121  A    between atoms: _297  and  _298
REMARK  122  A    between atoms: _297  and  _300
REMARK  123  A    between atoms: _300  and  _301
REMARK  124  A    between atoms: _301  and  _302
REMARK  125  A    between atoms: _307  and  _309
REMARK  126  A    between atoms: _309  and  _310
REMARK  127  A    between atoms: _309  and  _312
REMARK  128  A    between atoms: _312  and  _313
REMARK  129  A    between atoms: _313  and  _314
REMARK  130  A    between atoms: _319  and  _321
REMARK  131  A    between atoms: _321  and  _322
REMARK  132  A    between atoms: _321  and  _324
REMARK  133  A    between atoms: _324  and  _325
REMARK  134  A    between atoms: _325  and  _326
REMARK  135  A    between atoms: _326  and  _327
REMARK  136  A    between atoms: _336  and  _338
REMARK  137  A    between atoms: _338  and  _339
REMARK  138  A    between atoms: _338  and  _341
REMARK  139  A    between atoms: _341  and  _342
REMARK  140  A    between atoms: _342  and  _343
REMARK  141  A    between atoms: _345  and  _347
REMARK  142  A    between atoms: _347  and  _348
REMARK  143  A    between atoms: _347  and  _350
REMARK  144  A    between atoms: _350  and  _351
REMARK  145  A    between atoms: _361  and  _363
REMARK  146  A    between atoms: _363  and  _364
REMARK  147  A    between atoms: _363  and  _366
REMARK  148  A    between atoms: _366  and  _367
REMARK  149  A    between atoms: _370  and  _372
REMARK  150  A    between atoms: _372  and  _373
REMARK  151  A    between atoms: _372  and  _375
REMARK  152  A    between atoms: _375  and  _376
REMARK  153  A    between atoms: _379  and  _381
REMARK  154  A    between atoms: _381  and  _382
REMARK  155  A    between atoms: _381  and  _384
REMARK  156  A    between atoms: _384  and  _385
REMARK  157  A    between atoms: _388  and  _390
REMARK  158  A    between atoms: _390  and  _391
REMARK  159  A    between atoms: _390  and  _393
REMARK  160  A    between atoms: _393  and  _394
REMARK  161  A    between atoms: _399  and  _400
REMARK  162  A    between atoms: _402  and  _404
REMARK  163  A    between atoms: _404  and  _405
REMARK  164  A    between atoms: _404  and  _407
REMARK  165  A    between atoms: _407  and  _408
REMARK  166  A    between atoms: _408  and  _409
REMARK  167  A    between atoms: _409  and  _410
REMARK  168  A    between atoms: _419  and  _421
REMARK  169  A    between atoms: _421  and  _422
REMARK  170  A    between atoms: _421  and  _424
REMARK  171  A    between atoms: _424  and  _425
REMARK  172  A    between atoms: _431  and  _433
REMARK  173  A    between atoms: _433  and  _434
REMARK  174  A    between atoms: _433  and  _436
REMARK  175  A    between atoms: _436  and  _437
REMARK  176  A    between atoms: _440  and  _442
REMARK  177  A    between atoms: _442  and  _443
REMARK  178  A    between atoms: _442  and  _445
REMARK  179  A    between atoms: _445  and  _446
REMARK  180  A    between atoms: _446  and  _447
REMARK  181  A    between atoms: _447  and  _448
REMARK  182  A    between atoms: _457  and  _459
REMARK  183  A    between atoms: _459  and  _460
REMARK  184  A    between atoms: _459  and  _462
REMARK  185  A    between atoms: _462  and  _463
REMARK  186  A    between atoms: _466  and  _468
REMARK  187  A    between atoms: _468  and  _469
REMARK  188  A    between atoms: _468  and  _471
REMARK  189  A    between atoms: _471  and  _472
REMARK  190  A    between atoms: _475  and  _477
REMARK  191  A    between atoms: _477  and  _478
REMARK  192  A    between atoms: _477  and  _480
REMARK  193  A    between atoms: _480  and  _481
REMARK  194  A    between atoms: _484  and  _486
REMARK  195  A    between atoms: _486  and  _487
REMARK  196  A    between atoms: _486  and  _489
REMARK  197  A    between atoms: _489  and  _490
REMARK  198  A    between atoms: _500  and  _502
REMARK  199  A    between atoms: _502  and  _503
REMARK  200  A    between atoms: _502  and  _505
REMARK  201  A    between atoms: _508  and  _510
REMARK  202  A    between atoms: _510  and  _511
REMARK  203  A    between atoms: _510  and  _513
REMARK  204  A    between atoms: _513  and  _514
REMARK  205  A    between atoms: _516  and  _518
REMARK  206  A    between atoms: _518  and  _519
REMARK  207  A    between atoms: _518  and  _521
REMARK  208  A    between atoms: _524  and  _526
REMARK  209  A    between atoms: _526  and  _527
REMARK  210  A    between atoms: _526  and  _529
REMARK  211  A    between atoms: _529  and  _530
REMARK  212  A    between atoms: _530  and  _531
REMARK  213  A    between atoms: _531  and  _532
REMARK  214  A    between atoms: _541  and  _543
REMARK  215  A    between atoms: _543  and  _544
REMARK  216  A    between atoms: _543  and  _546
REMARK  217  A    between atoms: _546  and  _547
REMARK  218  A    between atoms: _547  and  _548
REMARK  219  A    between atoms: _551  and  _553
REMARK  220  A    between atoms: _553  and  _554
REMARK  221  A    between atoms: _553  and  _556
REMARK  222  A    between atoms: _556  and  _557
REMARK  223  A    between atoms: _557  and  _558
REMARK  224  A    between atoms: _563  and  _565
REMARK  225  A    between atoms: _565  and  _566
REMARK  226  A    between atoms: _565  and  _568
REMARK  227  A    between atoms: _568  and  _569
REMARK  228  A    between atoms: _572  and  _574
REMARK  229  A    between atoms: _574  and  _575
REMARK  230  A    between atoms: _574  and  _577
REMARK  231  A    between atoms: _580  and  _582
REMARK  232  A    between atoms: _582  and  _583
REMARK  233  A    between atoms: _582  and  _585
REMARK  234  A    between atoms: _585  and  _586
REMARK  235  A    between atoms: _588  and  _590
REMARK  236  A    between atoms: _590  and  _591
REMARK  237  A    between atoms: _590  and  _593
REMARK  238  A    between atoms: _596  and  _598
REMARK  239  A    between atoms: _598  and  _599
REMARK  240  A    between atoms: _598  and  _601
REMARK  241  A    between atoms: _601  and  _602
REMARK  242  A    between atoms: _602  and  _603
REMARK  243  A    between atoms: _603  and  _604
REMARK  244  A    between atoms: _613  and  _615
REMARK  245  A    between atoms: _615  and  _616
REMARK  246  A    between atoms: _615  and  _618
REMARK  247  A    between atoms: _618  and  _619
REMARK  248  A    between atoms: _629  and  _631
REMARK  249  A    between atoms: _631  and  _632
REMARK  250  A    between atoms: _631  and  _634
REMARK  251  A    between atoms: _634  and  _635
REMARK  252  A    between atoms: _640  and  _641
REMARK  253  A    between atoms: _643  and  _645
REMARK  254  A    between atoms: _645  and  _646
REMARK  255  A    between atoms: _645  and  _648
REMARK  256  A    between atoms: _648  and  _649
REMARK  257  A    between atoms: _649  and  _650
REMARK  258  A    between atoms: _650  and  _651
REMARK  259  A    between atoms: _661  and  _662
REMARK  260  A    between atoms: _667  and  _669
REMARK  261  A    between atoms: _669  and  _670
REMARK  262  A    between atoms: _672  and  _674
REMARK  263  A    between atoms: _674  and  _675
REMARK  264  A    between atoms: _678  and  _679
REMARK  265  A    between atoms: _684  and  _686
REMARK  266  A    between atoms: _686  and  _687
REMARK  267  A    between atoms: _686  and  _689
REMARK  268  A    between atoms: _689  and  _690
REMARK  269  A    between atoms: _693  and  _695
REMARK  270  A    between atoms: _695  and  _696
REMARK  271  A    between atoms: _695  and  _698
REMARK  272  A    between atoms: _698  and  _699
REMARK  273  A    between atoms: _702  and  _704
REMARK  274  A    between atoms: _704  and  _705
REMARK  275  A    between atoms: _708  and  _710
REMARK  276  A    between atoms: _710  and  _711
REMARK  277  A    between atoms: _710  and  _713
REMARK  278  A    between atoms: _713  and  _714
REMARK  279  A    between atoms: _714  and  _715
REMARK  280  A    between atoms: _720  and  _722
REMARK  281  A    between atoms: _722  and  _723
REMARK  282  A    between atoms: _722  and  _725
REMARK                            x       y       z     vdW  Elec       q    Type
REMARK                         _______ _______ _______ _____ _____    ______ ____
ROOT
ATOM      1  O   HOH     1       0.063  32.132   9.623  0.00  0.00    +0.000 OA
ENDROOT
TORSDOF 0
REMARK  Name = ../refined-set-2016/4w97/4w97_pocket.pdb
REMARK  282 active torsions:
REMARK  status: ('A' for Active; 'I' for Inactive)
REMARK    1  A    between atoms: _1  and  _3
REMARK    2  A    between atoms: _3  and  _4
REMARK    3  A    between atoms: _3  and  _6
REMARK    4  A    between atoms: _6  and  _7
REMARK    5  A    between atoms: _10  and  _12
REMARK    6  A    between atoms: _12  and  _13
REMARK    7  A    between atoms: _12  and  _15
REMARK    8  A    between atoms: _15  and  _16
REMARK    9  A    between atoms: _22  and  _24
REMARK   10  A    between atoms: _24  and  _25
REMARK   11  A    between atoms: _24  and  _27
REMARK   12  A    between atoms: _27  and  _28
REMARK   13  A    between atoms: _31  and  _33
REMARK   14  A    between atoms: _33  and  _34
REMARK   15  A    between atoms: _33  and  _36
REMARK   16  A    between atoms: _36  and  _37
REMARK   17  A    between atoms: _40  and  _42
REMARK   18  A    between atoms: _42  and  _43
REMARK   19  A    between atoms: _42  and  _45
REMARK   20  A    between atoms: _45  and  _46
REMARK   21  A    between atoms: _52  and  _54
REMARK   22  A    between atoms: _54  and  _55
REMARK   23  A    between atoms: _54  and  _57
REMARK   24  A    between atoms: _57  and  _58
REMARK   25  A    between atoms: _63  and  _64
REMARK   26  A    between atoms: _66  and  _68
REMARK   27  A    between atoms: _68  and  _69
REMARK   28  A    between atoms: _68  and  _71
REMARK   29  A    between atoms: _71  and  _72
REMARK   30  A    between atoms: _74  and  _76
REMARK   31  A    between atoms: _76  and  _77
REMARK   32  A    between atoms: _80  and  _82
REMARK   33  A    between atoms: _82  and  _83
REMARK   34  A    between atoms: _82  and  _85
REMARK   35  A    between atoms: _85  and  _86
REMARK   36  A    between atoms: _89  and  _91
REMARK   37  A    between atoms: _91  and  _92
REMARK   38  A    between atoms: _91  and  _94
REMARK   39  A    between atoms: _94  and  _95
REMARK   40  A    between atoms: _95  and  _96
REMARK   41  A    between atoms: _101  and  _103
REMARK   42  A    between atoms: _103  and  _104
REMARK   43  A    between atoms: _103  and  _106
REMARK   44  A    between atoms: _109  and  _111
REMARK   45  A    between atoms: _111  and  _112
REMARK   46  A    between atoms: _111  and  _114
REMARK   47  A    between atoms: _117  and  _119
REMARK   48  A    between atoms: _119  and  _120
REMARK   49  A    between atoms: _119  and  _122
REMARK   50  A    between atoms: _122  and  _123
REMARK   51  A    between atoms: _126  and  _128
REMARK   52  A    between atoms: _128  and  _129
REMARK   53  A    between atoms: _128  and  _131
REMARK   54  A    between atoms: _131  and  _132
REMARK   55  A    between atoms: _137  and  _138
REMARK   56  A    between atoms: _140  and  _142
REMARK   57  A    between atoms: _142  and  _143
REMARK   58  A    between atoms: _142  and  _145
REMARK   59  A    between atoms: _145  and  _146
REMARK   60  A    between atoms: _146  and  _147
REMARK   61  A    between atoms: _152  and  _154
REMARK   62  A    between atoms: _154  and  _155
REMARK   63  A    between atoms: _154  and  _157
REMARK   64  A    between atoms: _157  and  _158
REMARK   65  A    between atoms: _161  and  _163
REMARK   66  A    between atoms: _163  and  _164
REMARK   67  A    between atoms: _163  and  _166
REMARK   68  A    between atoms: _166  and  _167
REMARK   69  A    between atoms: _167  and  _168
REMARK   70  A    between atoms: _171  and  _173
REMARK   71  A    between atoms: _173  and  _174
REMARK   72  A    between atoms: _177  and  _179
REMARK   73  A    between atoms: _179  and  _180
REMARK   74  A    between atoms: _179  and  _182
REMARK   75  A    between atoms: _182  and  _183
REMARK   76  A    between atoms: _183  and  _184
REMARK   77  A    between atoms: _189  and  _191
REMARK   78  A    between atoms: _191  and  _192
REMARK   79  A    between atoms: _191  and  _194
REMARK   80  A    between atoms: _194  and  _195
REMARK   81  A    between atoms: _195  and  _196
REMARK   82  A    between atoms: _196  and  _197
REMARK   83  A    between atoms: _206  and  _208
REMARK   84  A    between atoms: _208  and  _209
REMARK   85  A    between atoms: _212  and  _214
REMARK   86  A    between atoms: _214  and  _215
REMARK   87  A    between atoms: _214  and  _217
REMARK   88  A    between atoms: _217  and  _218
REMARK   89  A    between atoms: _223  and  _224
REMARK   90  A    between atoms: _226  and  _228
REMARK   91  A    between atoms: _228  and  _229
REMARK   92  A    between atoms: _228  and  _231
REMARK   93  A    between atoms: _231  and  _232
REMARK   94  A    between atoms: _235  and  _237
REMARK   95  A    between atoms: _237  and  _238
REMARK   96  A    between atoms: _237  and  _240
REMARK   97  A    between atoms: _240  and  _241
REMARK   98  A    between atoms: _241  and  _242
REMARK   99  A    between atoms: _245  and  _247
REMARK  100  A    between atoms: _247  and  _248
REMARK  101  A    between atoms: _247  and  _250
REMARK  102  A    between atoms: _250  and  _251
REMARK  103  A    between atoms: _254  and  _256
REMARK  104  A    between atoms: _256  and  _257
REMARK  105  A    between atoms: _256  and  _259
REMARK  106  A    between atoms: _259  and  _260
REMARK  107  A    between atoms: _260  and  _261
REMARK  108  A    between atoms: _261  and  _262
REMARK  109  A    between atoms: _271  and  _273
REMARK  110  A    between atoms: _273  and  _274
REMARK  111  A    between atoms: _273  and  _276
REMARK  112  A    between atoms: _276  and  _277
REMARK  113  A    between atoms: _282  and  _284
REMARK  114  A    between atoms: _284  and  _285
REMARK  115  A    between atoms: _284  and  _287
REMARK  116  A    between atoms: _287  and  _288
REMARK  117  A    between atoms: _288  and  _289
REMARK  118  A    between atoms: _289  and  _290
REMARK  119  A    between atoms: _290  and  _291
REMARK  120  A    between atoms: _295  and  _297
REMARK  121  A    between atoms: _297  and  _298
REMARK  122  A    between atoms: _297  and  _300
REMARK  123  A    between atoms: _300  and  _301
REMARK  124  A    between atoms: _301  and  _302
REMARK  125  A    between atoms: _307  and  _309
REMARK  126  A    between atoms: _309  and  _310
REMARK  127  A    between atoms: _309  and  _312
REMARK  128  A    between atoms: _312  and  _313
REMARK  129  A    between atoms: _313  and  _314
REMARK  130  A    between atoms: _319  and  _321
REMARK  131  A    between atoms: _321  and  _322
REMARK  132  A    between atoms: _321  and  _324
REMARK  133  A    between atoms: _324  and  _325
REMARK  134  A    between atoms: _325  and  _326
REMARK  135  A    between atoms: _326  and  _327
REMARK  136  A    between atoms: _336  and  _338
REMARK  137  A    between atoms: _338  and  _339
REMARK  138  A    between atoms: _338  and  _341
REMARK  139  A    between atoms: _341  and  _342
REMARK  140  A    between atoms: _342  and  _343
REMARK  141  A    between atoms: _345  and  _347
REMARK  142  A    between atoms: _347  and  _348
REMARK  143  A    between atoms: _347  and  _350
REMARK  144  A    between atoms: _350  and  _351
REMARK  145  A    between atoms: _361  and  _363
REMARK  146  A    between atoms: _363  and  _364
REMARK  147  A    between atoms: _363  and  _366
REMARK  148  A    between atoms: _366  and  _367
REMARK  149  A    between atoms: _370  and  _372
REMARK  150  A    between atoms: _372  and  _373
REMARK  151  A    between atoms: _372  and  _375
REMARK  152  A    between atoms: _375  and  _376
REMARK  153  A    between atoms: _379  and  _381
REMARK  154  A    between atoms: _381  and  _382
REMARK  155  A    between atoms: _381  and  _384
REMARK  156  A    between atoms: _384  and  _385
REMARK  157  A    between atoms: _388  and  _390
REMARK  158  A    between atoms: _390  and  _391
REMARK  159  A    between atoms: _390  and  _393
REMARK  160  A    between atoms: _393  and  _394
REMARK  161  A    between atoms: _399  and  _400
REMARK  162  A    between atoms: _402  and  _404
REMARK  163  A    between atoms: _404  and  _405
REMARK  164  A    between atoms: _404  and  _407
REMARK  165  A    between atoms: _407  and  _408
REMARK  166  A    between atoms: _408  and  _409
REMARK  167  A    between atoms: _409  and  _410
REMARK  168  A    between atoms: _419  and  _421
REMARK  169  A    between atoms: _421  and  _422
REMARK  170  A    between atoms: _421  and  _424
REMARK  171  A    between atoms: _424  and  _425
REMARK  172  A    between atoms: _431  and  _433
REMARK  173  A    between atoms: _433  and  _434
REMARK  174  A    between atoms: _433  and  _436
REMARK  175  A    between atoms: _436  and  _437
REMARK  176  A    between atoms: _440  and  _442
REMARK  177  A    between atoms: _442  and  _443
REMARK  178  A    between atoms: _442  and  _445
REMARK  179  A    between atoms: _445  and  _446
REMARK  180  A    between atoms: _446  and  _447
REMARK  181  A    between atoms: _447  and  _448
REMARK  182  A    between atoms: _457  and  _459
REMARK  183  A    between atoms: _459  and  _460
REMARK  184  A    between atoms: _459  and  _462
REMARK  185  A    between atoms: _462  and  _463
REMARK  186  A    between atoms: _466  and  _468
REMARK  187  A    between atoms: _468  and  _469
REMARK  188  A    between atoms: _468  and  _471
REMARK  189  A    between atoms: _471  and  _472
REMARK  190  A    between atoms: _475  and  _477
REMARK  191  A    between atoms: _477  and  _478
REMARK  192  A    between atoms: _477  and  _480
REMARK  193  A    between atoms: _480  and  _481
REMARK  194  A    between atoms: _484  and  _486
REMARK  195  A    between atoms: _486  and  _487
REMARK  196  A    between atoms: _486  and  _489
REMARK  197  A    between atoms: _489  and  _490
REMARK  198  A    between atoms: _500  and  _502
REMARK  199  A    between atoms: _502  and  _503
REMARK  200  A    between atoms: _502  and  _505
REMARK  201  A    between atoms: _508  and  _510
REMARK  202  A    between atoms: _510  and  _511
REMARK  203  A    between atoms: _510  and  _513
REMARK  204  A    between atoms: _513  and  _514
REMARK  205  A    between atoms: _516  and  _518
REMARK  206  A    between atoms: _518  and  _519
REMARK  207  A    between atoms: _518  and  _521
REMARK  208  A    between atoms: _524  and  _526
REMARK  209  A    between atoms: _526  and  _527
REMARK  210  A    between atoms: _526  and  _529
REMARK  211  A    between atoms: _529  and  _530
REMARK  212  A    between atoms: _530  and  _531
REMARK  213  A    between atoms: _531  and  _532
REMARK  214  A    between atoms: _541  and  _543
REMARK  215  A    between atoms: _543  and  _544
REMARK  216  A    between atoms: _543  and  _546
REMARK  217  A    between atoms: _546  and  _547
REMARK  218  A    between atoms: _547  and  _548
REMARK  219  A    between atoms: _551  and  _553
REMARK  220  A    between atoms: _553  and  _554
REMARK  221  A    between atoms: _553  and  _556
REMARK  222  A    between atoms: _556  and  _557
REMARK  223  A    between atoms: _557  and  _558
REMARK  224  A    between atoms: _563  and  _565
REMARK  225  A    between atoms: _565  and  _566
REMARK  226  A    between atoms: _565  and  _568
REMARK  227  A    between atoms: _568  and  _569
REMARK  228  A    between atoms: _572  and  _574
REMARK  229  A    between atoms: _574  and  _575
REMARK  230  A    between atoms: _574  and  _577
REMARK  231  A    between atoms: _580  and  _582
REMARK  232  A    between atoms: _582  and  _583
REMARK  233  A    between atoms: _582  and  _585
REMARK  234  A    between atoms: _585  and  _586
REMARK  235  A    between atoms: _588  and  _590
REMARK  236  A    between atoms: _590  and  _591
REMARK  237  A    between atoms: _590  and  _593
REMARK  238  A    between atoms: _596  and  _598
REMARK  239  A    between atoms: _598  and  _599
REMARK  240  A    between atoms: _598  and  _601
REMARK  241  A    between atoms: _601  and  _602
REMARK  242  A    between atoms: _602  and  _603
REMARK  243  A    between atoms: _603  and  _604
REMARK  244  A    between atoms: _613  and  _615
REMARK  245  A    between atoms: _615  and  _616
REMARK  246  A    between atoms: _615  and  _618
REMARK  247  A    between atoms: _618  and  _619
REMARK  248  A    between atoms: _629  and  _631
REMARK  249  A    between atoms: _631  and  _632
REMARK  250  A    between atoms: _631  and  _634
REMARK  251  A    between atoms: _634  and  _635
REMARK  252  A    between atoms: _640  and  _641
REMARK  253  A    between atoms: _643  and  _645
REMARK  254  A    between atoms: _645  and  _646
REMARK  255  A    between atoms: _645  and  _648
REMARK  256  A    between atoms: _648  and  _649
REMARK  257  A    between atoms: _649  and  _650
REMARK  258  A    between atoms: _650  and  _651
REMARK  259  A    between atoms: _661  and  _662
REMARK  260  A    between atoms: _667  and  _669
REMARK  261  A    between atoms: _669  and  _670
REMARK  262  A    between atoms: _672  and  _674
REMARK  263  A    between atoms: _674  and  _675
REMARK  264  A    between atoms: _678  and  _679
REMARK  265  A    between atoms: _684  and  _686
REMARK  266  A    between atoms: _686  and  _687
REMARK  267  A    between atoms: _686  and  _689
REMARK  268  A    between atoms: _689  and  _690
REMARK  269  A    between atoms: _693  and  _695
REMARK  270  A    between atoms: _695  and  _696
REMARK  271  A    between atoms: _695  and  _698
REMARK  272  A    between atoms: _698  and  _699
REMARK  273  A    between atoms: _702  and  _704
REMARK  274  A    between atoms: _704  and  _705
REMARK  275  A    between atoms: _708  and  _710
REMARK  276  A    between atoms: _710  and  _711
REMARK  277  A    between atoms: _710  and  _713
REMARK  278  A    between atoms: _713  and  _714
REMARK  279  A    between atoms: _714  and  _715
REMARK  280  A    between atoms: _720  and  _722
REMARK  281  A    between atoms: _722  and  _723
REMARK  282  A    between atoms: _722  and  _725
REMARK                            x       y       z     vdW  Elec       q    Type
REMARK                         _______ _______ _______ _____ _____    ______ ____
ROOT
ATOM      1  O   HOH     1       0.706  43.510  12.656  0.00  0.00    +0.000 OA
ENDROOT
TORSDOF 0
REMARK  Name = ../refined-set-2016/4w97/4w97_pocket.pdb
REMARK  282 active torsions:
REMARK  status: ('A' for Active; 'I' for Inactive)
REMARK    1  A    between atoms: _1  and  _3
REMARK    2  A    between atoms: _3  and  _4
REMARK    3  A    between atoms: _3  and  _6
REMARK    4  A    between atoms: _6  and  _7
REMARK    5  A    between atoms: _10  and  _12
REMARK    6  A    between atoms: _12  and  _13
REMARK    7  A    between atoms: _12  and  _15
REMARK    8  A    between atoms: _15  and  _16
REMARK    9  A    between atoms: _22  and  _24
REMARK   10  A    between atoms: _24  and  _25
REMARK   11  A    between atoms: _24  and  _27
REMARK   12  A    between atoms: _27  and  _28
REMARK   13  A    between atoms: _31  and  _33
REMARK   14  A    between atoms: _33  and  _34
REMARK   15  A    between atoms: _33  and  _36
REMARK   16  A    between atoms: _36  and  _37
REMARK   17  A    between atoms: _40  and  _42
REMARK   18  A    between atoms: _42  and  _43
REMARK   19  A    between atoms: _42  and  _45
REMARK   20  A    between atoms: _45  and  _46
REMARK   21  A    between atoms: _52  and  _54
REMARK   22  A    between atoms: _54  and  _55
REMARK   23  A    between atoms: _54  and  _57
REMARK   24  A    between atoms: _57  and  _58
REMARK   25  A    between atoms: _63  and  _64
REMARK   26  A    between atoms: _66  and  _68
REMARK   27  A    between atoms: _68  and  _69
REMARK   28  A    between atoms: _68  and  _71
REMARK   29  A    between atoms: _71  and  _72
REMARK   30  A    between atoms: _74  and  _76
REMARK   31  A    between atoms: _76  and  _77
REMARK   32  A    between atoms: _80  and  _82
REMARK   33  A    between atoms: _82  and  _83
REMARK   34  A    between atoms: _82  and  _85
REMARK   35  A    between atoms: _85  and  _86
REMARK   36  A    between atoms: _89  and  _91
REMARK   37  A    between atoms: _91  and  _92
REMARK   38  A    between atoms: _91  and  _94
REMARK   39  A    between atoms: _94  and  _95
REMARK   40  A    between atoms: _95  and  _96
REMARK   41  A    between atoms: _101  and  _103
REMARK   42  A    between atoms: _103  and  _104
REMARK   43  A    between atoms: _103  and  _106
REMARK   44  A    between atoms: _109  and  _111
REMARK   45  A    between atoms: _111  and  _112
REMARK   46  A    between atoms: _111  and  _114
REMARK   47  A    between atoms: _117  and  _119
REMARK   48  A    between atoms: _119  and  _120
REMARK   49  A    between atoms: _119  and  _122
REMARK   50  A    between atoms: _122  and  _123
REMARK   51  A    between atoms: _126  and  _128
REMARK   52  A    between atoms: _128  and  _129
REMARK   53  A    between atoms: _128  and  _131
REMARK   54  A    between atoms: _131  and  _132
REMARK   55  A    between atoms: _137  and  _138
REMARK   56  A    between atoms: _140  and  _142
REMARK   57  A    between atoms: _142  and  _143
REMARK   58  A    between atoms: _142  and  _145
REMARK   59  A    between atoms: _145  and  _146
REMARK   60  A    between atoms: _146  and  _147
REMARK   61  A    between atoms: _152  and  _154
REMARK   62  A    between atoms: _154  and  _155
REMARK   63  A    between atoms: _154  and  _157
REMARK   64  A    between atoms: _157  and  _158
REMARK   65  A    between atoms: _161  and  _163
REMARK   66  A    between atoms: _163  and  _164
REMARK   67  A    between atoms: _163  and  _166
REMARK   68  A    between atoms: _166  and  _167
REMARK   69  A    between atoms: _167  and  _168
REMARK   70  A    between atoms: _171  and  _173
REMARK   71  A    between atoms: _173  and  _174
REMARK   72  A    between atoms: _177  and  _179
REMARK   73  A    between atoms: _179  and  _180
REMARK   74  A    between atoms: _179  and  _182
REMARK   75  A    between atoms: _182  and  _183
REMARK   76  A    between atoms: _183  and  _184
REMARK   77  A    between atoms: _189  and  _191
REMARK   78  A    between atoms: _191  and  _192
REMARK   79  A    between atoms: _191  and  _194
REMARK   80  A    between atoms: _194  and  _195
REMARK   81  A    between atoms: _195  and  _196
REMARK   82  A    between atoms: _196  and  _197
REMARK   83  A    between atoms: _206  and  _208
REMARK   84  A    between atoms: _208  and  _209
REMARK   85  A    between atoms: _212  and  _214
REMARK   86  A    between atoms: _214  and  _215
REMARK   87  A    between atoms: _214  and  _217
REMARK   88  A    between atoms: _217  and  _218
REMARK   89  A    between atoms: _223  and  _224
REMARK   90  A    between atoms: _226  and  _228
REMARK   91  A    between atoms: _228  and  _229
REMARK   92  A    between atoms: _228  and  _231
REMARK   93  A    between atoms: _231  and  _232
REMARK   94  A    between atoms: _235  and  _237
REMARK   95  A    between atoms: _237  and  _238
REMARK   96  A    between atoms: _237  and  _240
REMARK   97  A    between atoms: _240  and  _241
REMARK   98  A    between atoms: _241  and  _242
REMARK   99  A    between atoms: _245  and  _247
REMARK  100  A    between atoms: _247  and  _248
REMARK  101  A    between atoms: _247  and  _250
REMARK  102  A    between atoms: _250  and  _251
REMARK  103  A    between atoms: _254  and  _256
REMARK  104  A    between atoms: _256  and  _257
REMARK  105  A    between atoms: _256  and  _259
REMARK  106  A    between atoms: _259  and  _260
REMARK  107  A    between atoms: _260  and  _261
REMARK  108  A    between atoms: _261  and  _262
REMARK  109  A    between atoms: _271  and  _273
REMARK  110  A    between atoms: _273  and  _274
REMARK  111  A    between atoms: _273  and  _276
REMARK  112  A    between atoms: _276  and  _277
REMARK  113  A    between atoms: _282  and  _284
REMARK  114  A    between atoms: _284  and  _285
REMARK  115  A    between atoms: _284  and  _287
REMARK  116  A    between atoms: _287  and  _288
REMARK  117  A    between atoms: _288  and  _289
REMARK  118  A    between atoms: _289  and  _290
REMARK  119  A    between atoms: _290  and  _291
REMARK  120  A    between atoms: _295  and  _297
REMARK  121  A    between atoms: _297  and  _298
REMARK  122  A    between atoms: _297  and  _300
REMARK  123  A    between atoms: _300  and  _301
REMARK  124  A    between atoms: _301  and  _302
REMARK  125  A    between atoms: _307  and  _309
REMARK  126  A    between atoms: _309  and  _310
REMARK  127  A    between atoms: _309  and  _312
REMARK  128  A    between atoms: _312  and  _313
REMARK  129  A    between atoms: _313  and  _314
REMARK  130  A    between atoms: _319  and  _321
REMARK  131  A    between atoms: _321  and  _322
REMARK  132  A    between atoms: _321  and  _324
REMARK  133  A    between atoms: _324  and  _325
REMARK  134  A    between atoms: _325  and  _326
REMARK  135  A    between atoms: _326  and  _327
REMARK  136  A    between atoms: _336  and  _338
REMARK  137  A    between atoms: _338  and  _339
REMARK  138  A    between atoms: _338  and  _341
REMARK  139  A    between atoms: _341  and  _342
REMARK  140  A    between atoms: _342  and  _343
REMARK  141  A    between atoms: _345  and  _347
REMARK  142  A    between atoms: _347  and  _348
REMARK  143  A    between atoms: _347  and  _350
REMARK  144  A    between atoms: _350  and  _351
REMARK  145  A    between atoms: _361  and  _363
REMARK  146  A    between atoms: _363  and  _364
REMARK  147  A    between atoms: _363  and  _366
REMARK  148  A    between atoms: _366  and  _367
REMARK  149  A    between atoms: _370  and  _372
REMARK  150  A    between atoms: _372  and  _373
REMARK  151  A    between atoms: _372  and  _375
REMARK  152  A    between atoms: _375  and  _376
REMARK  153  A    between atoms: _379  and  _381
REMARK  154  A    between atoms: _381  and  _382
REMARK  155  A    between atoms: _381  and  _384
REMARK  156  A    between atoms: _384  and  _385
REMARK  157  A    between atoms: _388  and  _390
REMARK  158  A    between atoms: _390  and  _391
REMARK  159  A    between atoms: _390  and  _393
REMARK  160  A    between atoms: _393  and  _394
REMARK  161  A    between atoms: _399  and  _400
REMARK  162  A    between atoms: _402  and  _404
REMARK  163  A    between atoms: _404  and  _405
REMARK  164  A    between atoms: _404  and  _407
REMARK  165  A    between atoms: _407  and  _408
REMARK  166  A    between atoms: _408  and  _409
REMARK  167  A    between atoms: _409  and  _410
REMARK  168  A    between atoms: _419  and  _421
REMARK  169  A    between atoms: _421  and  _422
REMARK  170  A    between atoms: _421  and  _424
REMARK  171  A    between atoms: _424  and  _425
REMARK  172  A    between atoms: _431  and  _433
REMARK  173  A    between atoms: _433  and  _434
REMARK  174  A    between atoms: _433  and  _436
REMARK  175  A    between atoms: _436  and  _437
REMARK  176  A    between atoms: _440  and  _442
REMARK  177  A    between atoms: _442  and  _443
REMARK  178  A    between atoms: _442  and  _445
REMARK  179  A    between atoms: _445  and  _446
REMARK  180  A    between atoms: _446  and  _447
REMARK  181  A    between atoms: _447  and  _448
REMARK  182  A    between atoms: _457  and  _459
REMARK  183  A    between atoms: _459  and  _460
REMARK  184  A    between atoms: _459  and  _462
REMARK  185  A    between atoms: _462  and  _463
REMARK  186  A    between atoms: _466  and  _468
REMARK  187  A    between atoms: _468  and  _469
REMARK  188  A    between atoms: _468  and  _471
REMARK  189  A    between atoms: _471  and  _472
REMARK  190  A    between atoms: _475  and  _477
REMARK  191  A    between atoms: _477  and  _478
REMARK  192  A    between atoms: _477  and  _480
REMARK  193  A    between atoms: _480  and  _481
REMARK  194  A    between atoms: _484  and  _486
REMARK  195  A    between atoms: _486  and  _487
REMARK  196  A    between atoms: _486  and  _489
REMARK  197  A    between atoms: _489  and  _490
REMARK  198  A    between atoms: _500  and  _502
REMARK  199  A    between atoms: _502  and  _503
REMARK  200  A    between atoms: _502  and  _505
REMARK  201  A    between atoms: _508  and  _510
REMARK  202  A    between atoms: _510  and  _511
REMARK  203  A    between atoms: _510  and  _513
REMARK  204  A    between atoms: _513  and  _514
REMARK  205  A    between atoms: _516  and  _518
REMARK  206  A    between atoms: _518  and  _519
REMARK  207  A    between atoms: _518  and  _521
REMARK  208  A    between atoms: _524  and  _526
REMARK  209  A    between atoms: _526  and  _527
REMARK  210  A    between atoms: _526  and  _529
REMARK  211  A    between atoms: _529  and  _530
REMARK  212  A    between atoms: _530  and  _531
REMARK  213  A    between atoms: _531  and  _532
REMARK  214  A    between atoms: _541  and  _543
REMARK  215  A    between atoms: _543  and  _544
REMARK  216  A    between atoms: _543  and  _546
REMARK  217  A    between atoms: _546  and  _547
REMARK  218  A    between atoms: _547  and  _548
REMARK  219  A    between atoms: _551  and  _553
REMARK  220  A    between atoms: _553  and  _554
REMARK  221  A    between atoms: _553  and  _556
REMARK  222  A    between atoms: _556  and  _557
REMARK  223  A    between atoms: _557  and  _558
REMARK  224  A    between atoms: _563  and  _565
REMARK  225  A    between atoms: _565  and  _566
REMARK  226  A    between atoms: _565  and  _568
REMARK  227  A    between atoms: _568  and  _569
REMARK  228  A    between atoms: _572  and  _574
REMARK  229  A    between atoms: _574  and  _575
REMARK  230  A    between atoms: _574  and  _577
REMARK  231  A    between atoms: _580  and  _582
REMARK  232  A    between atoms: _582  and  _583
REMARK  233  A    between atoms: _582  and  _585
REMARK  234  A    between atoms: _585  and  _586
REMARK  235  A    between atoms: _588  and  _590
REMARK  236  A    between atoms: _590  and  _591
REMARK  237  A    between atoms: _590  and  _593
REMARK  238  A    between atoms: _596  and  _598
REMARK  239  A    between atoms: _598  and  _599
REMARK  240  A    between atoms: _598  and  _601
REMARK  241  A    between atoms: _601  and  _602
REMARK  242  A    between atoms: _602  and  _603
REMARK  243  A    between atoms: _603  and  _604
REMARK  244  A    between atoms: _613  and  _615
REMARK  245  A    between atoms: _615  and  _616
REMARK  246  A    between atoms: _615  and  _618
REMARK  247  A    between atoms: _618  and  _619
REMARK  248  A    between atoms: _629  and  _631
REMARK  249  A    between atoms: _631  and  _632
REMARK  250  A    between atoms: _631  and  _634
REMARK  251  A    between atoms: _634  and  _635
REMARK  252  A    between atoms: _640  and  _641
REMARK  253  A    between atoms: _643  and  _645
REMARK  254  A    between atoms: _645  and  _646
REMARK  255  A    between atoms: _645  and  _648
REMARK  256  A    between atoms: _648  and  _649
REMARK  257  A    between atoms: _649  and  _650
REMARK  258  A    between atoms: _650  and  _651
REMARK  259  A    between atoms: _661  and  _662
REMARK  260  A    between atoms: _667  and  _669
REMARK  261  A    between atoms: _669  and  _670
REMARK  262  A    between atoms: _672  and  _674
REMARK  263  A    between atoms: _674  and  _675
REMARK  264  A    between atoms: _678  and  _679
REMARK  265  A    between atoms: _684  and  _686
REMARK  266  A    between atoms: _686  and  _687
REMARK  267  A    between atoms: _686  and  _689
REMARK  268  A    between atoms: _689  and  _690
REMARK  269  A    between atoms: _693  and  _695
REMARK  270  A    between atoms: _695  and  _696
REMARK  271  A    between atoms: _695  and  _698
REMARK  272  A    between atoms: _698  and  _699
REMARK  273  A    between atoms: _702  and  _704
REMARK  274  A    between atoms: _704  and  _705
REMARK  275  A    between atoms: _708  and  _710
REMARK  276  A    between atoms: _710  and  _711
REMARK  277  A    between atoms: _710  and  _713
REMARK  278  A    between atoms: _713  and  _714
REMARK  279  A    between atoms: _714  and  _715
REMARK  280  A    between atoms: _720  and  _722
REMARK  281  A    between atoms: _722  and  _723
REMARK  282  A    between atoms: _722  and  _725
REMARK                            x       y       z     vdW  Elec       q    Type
REMARK                         _______ _______ _______ _____ _____    ______ ____
ROOT
ATOM      1  O   HOH     1      -4.149  39.654  11.963  0.00  0.00    +0.000 OA
ENDROOT
TORSDOF 0
REMARK  Name = ../refined-set-2016/4w97/4w97_pocket.pdb
REMARK  282 active torsions:
REMARK  status: ('A' for Active; 'I' for Inactive)
REMARK    1  A    between atoms: _1  and  _3
REMARK    2  A    between atoms: _3  and  _4
REMARK    3  A    between atoms: _3  and  _6
REMARK    4  A    between atoms: _6  and  _7
REMARK    5  A    between atoms: _10  and  _12
REMARK    6  A    between atoms: _12  and  _13
REMARK    7  A    between atoms: _12  and  _15
REMARK    8  A    between atoms: _15  and  _16
REMARK    9  A    between atoms: _22  and  _24
REMARK   10  A    between atoms: _24  and  _25
REMARK   11  A    between atoms: _24  and  _27
REMARK   12  A    between atoms: _27  and  _28
REMARK   13  A    between atoms: _31  and  _33
REMARK   14  A    between atoms: _33  and  _34
REMARK   15  A    between atoms: _33  and  _36
REMARK   16  A    between atoms: _36  and  _37
REMARK   17  A    between atoms: _40  and  _42
REMARK   18  A    between atoms: _42  and  _43
REMARK   19  A    between atoms: _42  and  _45
REMARK   20  A    between atoms: _45  and  _46
REMARK   21  A    between atoms: _52  and  _54
REMARK   22  A    between atoms: _54  and  _55
REMARK   23  A    between atoms: _54  and  _57
REMARK   24  A    between atoms: _57  and  _58
REMARK   25  A    between atoms: _63  and  _64
REMARK   26  A    between atoms: _66  and  _68
REMARK   27  A    between atoms: _68  and  _69
REMARK   28  A    between atoms: _68  and  _71
REMARK   29  A    between atoms: _71  and  _72
REMARK   30  A    between atoms: _74  and  _76
REMARK   31  A    between atoms: _76  and  _77
REMARK   32  A    between atoms: _80  and  _82
REMARK   33  A    between atoms: _82  and  _83
REMARK   34  A    between atoms: _82  and  _85
REMARK   35  A    between atoms: _85  and  _86
REMARK   36  A    between atoms: _89  and  _91
REMARK   37  A    between atoms: _91  and  _92
REMARK   38  A    between atoms: _91  and  _94
REMARK   39  A    between atoms: _94  and  _95
REMARK   40  A    between atoms: _95  and  _96
REMARK   41  A    between atoms: _101  and  _103
REMARK   42  A    between atoms: _103  and  _104
REMARK   43  A    between atoms: _103  and  _106
REMARK   44  A    between atoms: _109  and  _111
REMARK   45  A    between atoms: _111  and  _112
REMARK   46  A    between atoms: _111  and  _114
REMARK   47  A    between atoms: _117  and  _119
REMARK   48  A    between atoms: _119  and  _120
REMARK   49  A    between atoms: _119  and  _122
REMARK   50  A    between atoms: _122  and  _123
REMARK   51  A    between atoms: _126  and  _128
REMARK   52  A    between atoms: _128  and  _129
REMARK   53  A    between atoms: _128  and  _131
REMARK   54  A    between atoms: _131  and  _132
REMARK   55  A    between atoms: _137  and  _138
REMARK   56  A    between atoms: _140  and  _142
REMARK   57  A    between atoms: _142  and  _143
REMARK   58  A    between atoms: _142  and  _145
REMARK   59  A    between atoms: _145  and  _146
REMARK   60  A    between atoms: _146  and  _147
REMARK   61  A    between atoms: _152  and  _154
REMARK   62  A    between atoms: _154  and  _155
REMARK   63  A    between atoms: _154  and  _157
REMARK   64  A    between atoms: _157  and  _158
REMARK   65  A    between atoms: _161  and  _163
REMARK   66  A    between atoms: _163  and  _164
REMARK   67  A    between atoms: _163  and  _166
REMARK   68  A    between atoms: _166  and  _167
REMARK   69  A    between atoms: _167  and  _168
REMARK   70  A    between atoms: _171  and  _173
REMARK   71  A    between atoms: _173  and  _174
REMARK   72  A    between atoms: _177  and  _179
REMARK   73  A    between atoms: _179  and  _180
REMARK   74  A    between atoms: _179  and  _182
REMARK   75  A    between atoms: _182  and  _183
REMARK   76  A    between atoms: _183  and  _184
REMARK   77  A    between atoms: _189  and  _191
REMARK   78  A    between atoms: _191  and  _192
REMARK   79  A    between atoms: _191  and  _194
REMARK   80  A    between atoms: _194  and  _195
REMARK   81  A    between atoms: _195  and  _196
REMARK   82  A    between atoms: _196  and  _197
REMARK   83  A    between atoms: _206  and  _208
REMARK   84  A    between atoms: _208  and  _209
REMARK   85  A    between atoms: _212  and  _214
REMARK   86  A    between atoms: _214  and  _215
REMARK   87  A    between atoms: _214  and  _217
REMARK   88  A    between atoms: _217  and  _218
REMARK   89  A    between atoms: _223  and  _224
REMARK   90  A    between atoms: _226  and  _228
REMARK   91  A    between atoms: _228  and  _229
REMARK   92  A    between atoms: _228  and  _231
REMARK   93  A    between atoms: _231  and  _232
REMARK   94  A    between atoms: _235  and  _237
REMARK   95  A    between atoms: _237  and  _238
REMARK   96  A    between atoms: _237  and  _240
REMARK   97  A    between atoms: _240  and  _241
REMARK   98  A    between atoms: _241  and  _242
REMARK   99  A    between atoms: _245  and  _247
REMARK  100  A    between atoms: _247  and  _248
REMARK  101  A    between atoms: _247  and  _250
REMARK  102  A    between atoms: _250  and  _251
REMARK  103  A    between atoms: _254  and  _256
REMARK  104  A    between atoms: _256  and  _257
REMARK  105  A    between atoms: _256  and  _259
REMARK  106  A    between atoms: _259  and  _260
REMARK  107  A    between atoms: _260  and  _261
REMARK  108  A    between atoms: _261  and  _262
REMARK  109  A    between atoms: _271  and  _273
REMARK  110  A    between atoms: _273  and  _274
REMARK  111  A    between atoms: _273  and  _276
REMARK  112  A    between atoms: _276  and  _277
REMARK  113  A    between atoms: _282  and  _284
REMARK  114  A    between atoms: _284  and  _285
REMARK  115  A    between atoms: _284  and  _287
REMARK  116  A    between atoms: _287  and  _288
REMARK  117  A    between atoms: _288  and  _289
REMARK  118  A    between atoms: _289  and  _290
REMARK  119  A    between atoms: _290  and  _291
REMARK  120  A    between atoms: _295  and  _297
REMARK  121  A    between atoms: _297  and  _298
REMARK  122  A    between atoms: _297  and  _300
REMARK  123  A    between atoms: _300  and  _301
REMARK  124  A    between atoms: _301  and  _302
REMARK  125  A    between atoms: _307  and  _309
REMARK  126  A    between atoms: _309  and  _310
REMARK  127  A    between atoms: _309  and  _312
REMARK  128  A    between atoms: _312  and  _313
REMARK  129  A    between atoms: _313  and  _314
REMARK  130  A    between atoms: _319  and  _321
REMARK  131  A    between atoms: _321  and  _322
REMARK  132  A    between atoms: _321  and  _324
REMARK  133  A    between atoms: _324  and  _325
REMARK  134  A    between atoms: _325  and  _326
REMARK  135  A    between atoms: _326  and  _327
REMARK  136  A    between atoms: _336  and  _338
REMARK  137  A    between atoms: _338  and  _339
REMARK  138  A    between atoms: _338  and  _341
REMARK  139  A    between atoms: _341  and  _342
REMARK  140  A    between atoms: _342  and  _343
REMARK  141  A    between atoms: _345  and  _347
REMARK  142  A    between atoms: _347  and  _348
REMARK  143  A    between atoms: _347  and  _350
REMARK  144  A    between atoms: _350  and  _351
REMARK  145  A    between atoms: _361  and  _363
REMARK  146  A    between atoms: _363  and  _364
REMARK  147  A    between atoms: _363  and  _366
REMARK  148  A    between atoms: _366  and  _367
REMARK  149  A    between atoms: _370  and  _372
REMARK  150  A    between atoms: _372  and  _373
REMARK  151  A    between atoms: _372  and  _375
REMARK  152  A    between atoms: _375  and  _376
REMARK  153  A    between atoms: _379  and  _381
REMARK  154  A    between atoms: _381  and  _382
REMARK  155  A    between atoms: _381  and  _384
REMARK  156  A    between atoms: _384  and  _385
REMARK  157  A    between atoms: _388  and  _390
REMARK  158  A    between atoms: _390  and  _391
REMARK  159  A    between atoms: _390  and  _393
REMARK  160  A    between atoms: _393  and  _394
REMARK  161  A    between atoms: _399  and  _400
REMARK  162  A    between atoms: _402  and  _404
REMARK  163  A    between atoms: _404  and  _405
REMARK  164  A    between atoms: _404  and  _407
REMARK  165  A    between atoms: _407  and  _408
REMARK  166  A    between atoms: _408  and  _409
REMARK  167  A    between atoms: _409  and  _410
REMARK  168  A    between atoms: _419  and  _421
REMARK  169  A    between atoms: _421  and  _422
REMARK  170  A    between atoms: _421  and  _424
REMARK  171  A    between atoms: _424  and  _425
REMARK  172  A    between atoms: _431  and  _433
REMARK  173  A    between atoms: _433  and  _434
REMARK  174  A    between atoms: _433  and  _436
REMARK  175  A    between atoms: _436  and  _437
REMARK  176  A    between atoms: _440  and  _442
REMARK  177  A    between atoms: _442  and  _443
REMARK  178  A    between atoms: _442  and  _445
REMARK  179  A    between atoms: _445  and  _446
REMARK  180  A    between atoms: _446  and  _447
REMARK  181  A    between atoms: _447  and  _448
REMARK  182  A    between atoms: _457  and  _459
REMARK  183  A    between atoms: _459  and  _460
REMARK  184  A    between atoms: _459  and  _462
REMARK  185  A    between atoms: _462  and  _463
REMARK  186  A    between atoms: _466  and  _468
REMARK  187  A    between atoms: _468  and  _469
REMARK  188  A    between atoms: _468  and  _471
REMARK  189  A    between atoms: _471  and  _472
REMARK  190  A    between atoms: _475  and  _477
REMARK  191  A    between atoms: _477  and  _478
REMARK  192  A    between atoms: _477  and  _480
REMARK  193  A    between atoms: _480  and  _481
REMARK  194  A    between atoms: _484  and  _486
REMARK  195  A    between atoms: _486  and  _487
REMARK  196  A    between atoms: _486  and  _489
REMARK  197  A    between atoms: _489  and  _490
REMARK  198  A    between atoms: _500  and  _502
REMARK  199  A    between atoms: _502  and  _503
REMARK  200  A    between atoms: _502  and  _505
REMARK  201  A    between atoms: _508  and  _510
REMARK  202  A    between atoms: _510  and  _511
REMARK  203  A    between atoms: _510  and  _513
REMARK  204  A    between atoms: _513  and  _514
REMARK  205  A    between atoms: _516  and  _518
REMARK  206  A    between atoms: _518  and  _519
REMARK  207  A    between atoms: _518  and  _521
REMARK  208  A    between atoms: _524  and  _526
REMARK  209  A    between atoms: _526  and  _527
REMARK  210  A    between atoms: _526  and  _529
REMARK  211  A    between atoms: _529  and  _530
REMARK  212  A    between atoms: _530  and  _531
REMARK  213  A    between atoms: _531  and  _532
REMARK  214  A    between atoms: _541  and  _543
REMARK  215  A    between atoms: _543  and  _544
REMARK  216  A    between atoms: _543  and  _546
REMARK  217  A    between atoms: _546  and  _547
REMARK  218  A    between atoms: _547  and  _548
REMARK  219  A    between atoms: _551  and  _553
REMARK  220  A    between atoms: _553  and  _554
REMARK  221  A    between atoms: _553  and  _556
REMARK  222  A    between atoms: _556  and  _557
REMARK  223  A    between atoms: _557  and  _558
REMARK  224  A    between atoms: _563  and  _565
REMARK  225  A    between atoms: _565  and  _566
REMARK  226  A    between atoms: _565  and  _568
REMARK  227  A    between atoms: _568  and  _569
REMARK  228  A    between atoms: _572  and  _574
REMARK  229  A    between atoms: _574  and  _575
REMARK  230  A    between atoms: _574  and  _577
REMARK  231  A    between atoms: _580  and  _582
REMARK  232  A    between atoms: _582  and  _583
REMARK  233  A    between atoms: _582  and  _585
REMARK  234  A    between atoms: _585  and  _586
REMARK  235  A    between atoms: _588  and  _590
REMARK  236  A    between atoms: _590  and  _591
REMARK  237  A    between atoms: _590  and  _593
REMARK  238  A    between atoms: _596  and  _598
REMARK  239  A    between atoms: _598  and  _599
REMARK  240  A    between atoms: _598  and  _601
REMARK  241  A    between atoms: _601  and  _602
REMARK  242  A    between atoms: _602  and  _603
REMARK  243  A    between atoms: _603  and  _604
REMARK  244  A    between atoms: _613  and  _615
REMARK  245  A    between atoms: _615  and  _616
REMARK  246  A    between atoms: _615  and  _618
REMARK  247  A    between atoms: _618  and  _619
REMARK  248  A    between atoms: _629  and  _631
REMARK  249  A    between atoms: _631  and  _632
REMARK  250  A    between atoms: _631  and  _634
REMARK  251  A    between atoms: _634  and  _635
REMARK  252  A    between atoms: _640  and  _641
REMARK  253  A    between atoms: _643  and  _645
REMARK  254  A    between atoms: _645  and  _646
REMARK  255  A    between atoms: _645  and  _648
REMARK  256  A    between atoms: _648  and  _649
REMARK  257  A    between atoms: _649  and  _650
REMARK  258  A    between atoms: _650  and  _651
REMARK  259  A    between atoms: _661  and  _662
REMARK  260  A    between atoms: _667  and  _669
REMARK  261  A    between atoms: _669  and  _670
REMARK  262  A    between atoms: _672  and  _674
REMARK  263  A    between atoms: _674  and  _675
REMARK  264  A    between atoms: _678  and  _679
REMARK  265  A    between atoms: _684  and  _686
REMARK  266  A    between atoms: _686  and  _687
REMARK  267  A    between atoms: _686  and  _689
REMARK  268  A    between atoms: _689  and  _690
REMARK  269  A    between atoms: _693  and  _695
REMARK  270  A    between atoms: _695  and  _696
REMARK  271  A    between atoms: _695  and  _698
REMARK  272  A    between atoms: _698  and  _699
REMARK  273  A    between atoms: _702  and  _704
REMARK  274  A    between atoms: _704  and  _705
REMARK  275  A    between atoms: _708  and  _710
REMARK  276  A    between atoms: _710  and  _711
REMARK  277  A    between atoms: _710  and  _713
REMARK  278  A    between atoms: _713  and  _714
REMARK  279  A    between atoms: _714  and  _715
REMARK  280  A    between atoms: _720  and  _722
REMARK  281  A    between atoms: _722  and  _723
REMARK  282  A    between atoms: _722  and  _725
REMARK                            x       y       z     vdW  Elec       q    Type
REMARK                         _______ _______ _______ _____ _____    ______ ____
ROOT
ATOM      1  O   HOH     1      -7.896  49.846  19.580  0.00  0.00    +0.000 OA
ENDROOT
TORSDOF 0
REMARK  Name = ../refined-set-2016/4w97/4w97_pocket.pdb
REMARK  282 active torsions:
REMARK  status: ('A' for Active; 'I' for Inactive)
REMARK    1  A    between atoms: _1  and  _3
REMARK    2  A    between atoms: _3  and  _4
REMARK    3  A    between atoms: _3  and  _6
REMARK    4  A    between atoms: _6  and  _7
REMARK    5  A    between atoms: _10  and  _12
REMARK    6  A    between atoms: _12  and  _13
REMARK    7  A    between atoms: _12  and  _15
REMARK    8  A    between atoms: _15  and  _16
REMARK    9  A    between atoms: _22  and  _24
REMARK   10  A    between atoms: _24  and  _25
REMARK   11  A    between atoms: _24  and  _27
REMARK   12  A    between atoms: _27  and  _28
REMARK   13  A    between atoms: _31  and  _33
REMARK   14  A    between atoms: _33  and  _34
REMARK   15  A    between atoms: _33  and  _36
REMARK   16  A    between atoms: _36  and  _37
REMARK   17  A    between atoms: _40  and  _42
REMARK   18  A    between atoms: _42  and  _43
REMARK   19  A    between atoms: _42  and  _45
REMARK   20  A    between atoms: _45  and  _46
REMARK   21  A    between atoms: _52  and  _54
REMARK   22  A    between atoms: _54  and  _55
REMARK   23  A    between atoms: _54  and  _57
REMARK   24  A    between atoms: _57  and  _58
REMARK   25  A    between atoms: _63  and  _64
REMARK   26  A    between atoms: _66  and  _68
REMARK   27  A    between atoms: _68  and  _69
REMARK   28  A    between atoms: _68  and  _71
REMARK   29  A    between atoms: _71  and  _72
REMARK   30  A    between atoms: _74  and  _76
REMARK   31  A    between atoms: _76  and  _77
REMARK   32  A    between atoms: _80  and  _82
REMARK   33  A    between atoms: _82  and  _83
REMARK   34  A    between atoms: _82  and  _85
REMARK   35  A    between atoms: _85  and  _86
REMARK   36  A    between atoms: _89  and  _91
REMARK   37  A    between atoms: _91  and  _92
REMARK   38  A    between atoms: _91  and  _94
REMARK   39  A    between atoms: _94  and  _95
REMARK   40  A    between atoms: _95  and  _96
REMARK   41  A    between atoms: _101  and  _103
REMARK   42  A    between atoms: _103  and  _104
REMARK   43  A    between atoms: _103  and  _106
REMARK   44  A    between atoms: _109  and  _111
REMARK   45  A    between atoms: _111  and  _112
REMARK   46  A    between atoms: _111  and  _114
REMARK   47  A    between atoms: _117  and  _119
REMARK   48  A    between atoms: _119  and  _120
REMARK   49  A    between atoms: _119  and  _122
REMARK   50  A    between atoms: _122  and  _123
REMARK   51  A    between atoms: _126  and  _128
REMARK   52  A    between atoms: _128  and  _129
REMARK   53  A    between atoms: _128  and  _131
REMARK   54  A    between atoms: _131  and  _132
REMARK   55  A    between atoms: _137  and  _138
REMARK   56  A    between atoms: _140  and  _142
REMARK   57  A    between atoms: _142  and  _143
REMARK   58  A    between atoms: _142  and  _145
REMARK   59  A    between atoms: _145  and  _146
REMARK   60  A    between atoms: _146  and  _147
REMARK   61  A    between atoms: _152  and  _154
REMARK   62  A    between atoms: _154  and  _155
REMARK   63  A    between atoms: _154  and  _157
REMARK   64  A    between atoms: _157  and  _158
REMARK   65  A    between atoms: _161  and  _163
REMARK   66  A    between atoms: _163  and  _164
REMARK   67  A    between atoms: _163  and  _166
REMARK   68  A    between atoms: _166  and  _167
REMARK   69  A    between atoms: _167  and  _168
REMARK   70  A    between atoms: _171  and  _173
REMARK   71  A    between atoms: _173  and  _174
REMARK   72  A    between atoms: _177  and  _179
REMARK   73  A    between atoms: _179  and  _180
REMARK   74  A    between atoms: _179  and  _182
REMARK   75  A    between atoms: _182  and  _183
REMARK   76  A    between atoms: _183  and  _184
REMARK   77  A    between atoms: _189  and  _191
REMARK   78  A    between atoms: _191  and  _192
REMARK   79  A    between atoms: _191  and  _194
REMARK   80  A    between atoms: _194  and  _195
REMARK   81  A    between atoms: _195  and  _196
REMARK   82  A    between atoms: _196  and  _197
REMARK   83  A    between atoms: _206  and  _208
REMARK   84  A    between atoms: _208  and  _209
REMARK   85  A    between atoms: _212  and  _214
REMARK   86  A    between atoms: _214  and  _215
REMARK   87  A    between atoms: _214  and  _217
REMARK   88  A    between atoms: _217  and  _218
REMARK   89  A    between atoms: _223  and  _224
REMARK   90  A    between atoms: _226  and  _228
REMARK   91  A    between atoms: _228  and  _229
REMARK   92  A    between atoms: _228  and  _231
REMARK   93  A    between atoms: _231  and  _232
REMARK   94  A    between atoms: _235  and  _237
REMARK   95  A    between atoms: _237  and  _238
REMARK   96  A    between atoms: _237  and  _240
REMARK   97  A    between atoms: _240  and  _241
REMARK   98  A    between atoms: _241  and  _242
REMARK   99  A    between atoms: _245  and  _247
REMARK  100  A    between atoms: _247  and  _248
REMARK  101  A    between atoms: _247  and  _250
REMARK  102  A    between atoms: _250  and  _251
REMARK  103  A    between atoms: _254  and  _256
REMARK  104  A    between atoms: _256  and  _257
REMARK  105  A    between atoms: _256  and  _259
REMARK  106  A    between atoms: _259  and  _260
REMARK  107  A    between atoms: _260  and  _261
REMARK  108  A    between atoms: _261  and  _262
REMARK  109  A    between atoms: _271  and  _273
REMARK  110  A    between atoms: _273  and  _274
REMARK  111  A    between atoms: _273  and  _276
REMARK  112  A    between atoms: _276  and  _277
REMARK  113  A    between atoms: _282  and  _284
REMARK  114  A    between atoms: _284  and  _285
REMARK  115  A    between atoms: _284  and  _287
REMARK  116  A    between atoms: _287  and  _288
REMARK  117  A    between atoms: _288  and  _289
REMARK  118  A    between atoms: _289  and  _290
REMARK  119  A    between atoms: _290  and  _291
REMARK  120  A    between atoms: _295  and  _297
REMARK  121  A    between atoms: _297  and  _298
REMARK  122  A    between atoms: _297  and  _300
REMARK  123  A    between atoms: _300  and  _301
REMARK  124  A    between atoms: _301  and  _302
REMARK  125  A    between atoms: _307  and  _309
REMARK  126  A    between atoms: _309  and  _310
REMARK  127  A    between atoms: _309  and  _312
REMARK  128  A    between atoms: _312  and  _313
REMARK  129  A    between atoms: _313  and  _314
REMARK  130  A    between atoms: _319  and  _321
REMARK  131  A    between atoms: _321  and  _322
REMARK  132  A    between atoms: _321  and  _324
REMARK  133  A    between atoms: _324  and  _325
REMARK  134  A    between atoms: _325  and  _326
REMARK  135  A    between atoms: _326  and  _327
REMARK  136  A    between atoms: _336  and  _338
REMARK  137  A    between atoms: _338  and  _339
REMARK  138  A    between atoms: _338  and  _341
REMARK  139  A    between atoms: _341  and  _342
REMARK  140  A    between atoms: _342  and  _343
REMARK  141  A    between atoms: _345  and  _347
REMARK  142  A    between atoms: _347  and  _348
REMARK  143  A    between atoms: _347  and  _350
REMARK  144  A    between atoms: _350  and  _351
REMARK  145  A    between atoms: _361  and  _363
REMARK  146  A    between atoms: _363  and  _364
REMARK  147  A    between atoms: _363  and  _366
REMARK  148  A    between atoms: _366  and  _367
REMARK  149  A    between atoms: _370  and  _372
REMARK  150  A    between atoms: _372  and  _373
REMARK  151  A    between atoms: _372  and  _375
REMARK  152  A    between atoms: _375  and  _376
REMARK  153  A    between atoms: _379  and  _381
REMARK  154  A    between atoms: _381  and  _382
REMARK  155  A    between atoms: _381  and  _384
REMARK  156  A    between atoms: _384  and  _385
REMARK  157  A    between atoms: _388  and  _390
REMARK  158  A    between atoms: _390  and  _391
REMARK  159  A    between atoms: _390  and  _393
REMARK  160  A    between atoms: _393  and  _394
REMARK  161  A    between atoms: _399  and  _400
REMARK  162  A    between atoms: _402  and  _404
REMARK  163  A    between atoms: _404  and  _405
REMARK  164  A    between atoms: _404  and  _407
REMARK  165  A    between atoms: _407  and  _408
REMARK  166  A    between atoms: _408  and  _409
REMARK  167  A    between atoms: _409  and  _410
REMARK  168  A    between atoms: _419  and  _421
REMARK  169  A    between atoms: _421  and  _422
REMARK  170  A    between atoms: _421  and  _424
REMARK  171  A    between atoms: _424  and  _425
REMARK  172  A    between atoms: _431  and  _433
REMARK  173  A    between atoms: _433  and  _434
REMARK  174  A    between atoms: _433  and  _436
REMARK  175  A    between atoms: _436  and  _437
REMARK  176  A    between atoms: _440  and  _442
REMARK  177  A    between atoms: _442  and  _443
REMARK  178  A    between atoms: _442  and  _445
REMARK  179  A    between atoms: _445  and  _446
REMARK  180  A    between atoms: _446  and  _447
REMARK  181  A    between atoms: _447  and  _448
REMARK  182  A    between atoms: _457  and  _459
REMARK  183  A    between atoms: _459  and  _460
REMARK  184  A    between atoms: _459  and  _462
REMARK  185  A    between atoms: _462  and  _463
REMARK  186  A    between atoms: _466  and  _468
REMARK  187  A    between atoms: _468  and  _469
REMARK  188  A    between atoms: _468  and  _471
REMARK  189  A    between atoms: _471  and  _472
REMARK  190  A    between atoms: _475  and  _477
REMARK  191  A    between atoms: _477  and  _478
REMARK  192  A    between atoms: _477  and  _480
REMARK  193  A    between atoms: _480  and  _481
REMARK  194  A    between atoms: _484  and  _486
REMARK  195  A    between atoms: _486  and  _487
REMARK  196  A    between atoms: _486  and  _489
REMARK  197  A    between atoms: _489  and  _490
REMARK  198  A    between atoms: _500  and  _502
REMARK  199  A    between atoms: _502  and  _503
REMARK  200  A    between atoms: _502  and  _505
REMARK  201  A    between atoms: _508  and  _510
REMARK  202  A    between atoms: _510  and  _511
REMARK  203  A    between atoms: _510  and  _513
REMARK  204  A    between atoms: _513  and  _514
REMARK  205  A    between atoms: _516  and  _518
REMARK  206  A    between atoms: _518  and  _519
REMARK  207  A    between atoms: _518  and  _521
REMARK  208  A    between atoms: _524  and  _526
REMARK  209  A    between atoms: _526  and  _527
REMARK  210  A    between atoms: _526  and  _529
REMARK  211  A    between atoms: _529  and  _530
REMARK  212  A    between atoms: _530  and  _531
REMARK  213  A    between atoms: _531  and  _532
REMARK  214  A    between atoms: _541  and  _543
REMARK  215  A    between atoms: _543  and  _544
REMARK  216  A    between atoms: _543  and  _546
REMARK  217  A    between atoms: _546  and  _547
REMARK  218  A    between atoms: _547  and  _548
REMARK  219  A    between atoms: _551  and  _553
REMARK  220  A    between atoms: _553  and  _554
REMARK  221  A    between atoms: _553  and  _556
REMARK  222  A    between atoms: _556  and  _557
REMARK  223  A    between atoms: _557  and  _558
REMARK  224  A    between atoms: _563  and  _565
REMARK  225  A    between atoms: _565  and  _566
REMARK  226  A    between atoms: _565  and  _568
REMARK  227  A    between atoms: _568  and  _569
REMARK  228  A    between atoms: _572  and  _574
REMARK  229  A    between atoms: _574  and  _575
REMARK  230  A    between atoms: _574  and  _577
REMARK  231  A    between atoms: _580  and  _582
REMARK  232  A    between atoms: _582  and  _583
REMARK  233  A    between atoms: _582  and  _585
REMARK  234  A    between atoms: _585  and  _586
REMARK  235  A    between atoms: _588  and  _590
REMARK  236  A    between atoms: _590  and  _591
REMARK  237  A    between atoms: _590  and  _593
REMARK  238  A    between atoms: _596  and  _598
REMARK  239  A    between atoms: _598  and  _599
REMARK  240  A    between atoms: _598  and  _601
REMARK  241  A    between atoms: _601  and  _602
REMARK  242  A    between atoms: _602  and  _603
REMARK  243  A    between atoms: _603  and  _604
REMARK  244  A    between atoms: _613  and  _615
REMARK  245  A    between atoms: _615  and  _616
REMARK  246  A    between atoms: _615  and  _618
REMARK  247  A    between atoms: _618  and  _619
REMARK  248  A    between atoms: _629  and  _631
REMARK  249  A    between atoms: _631  and  _632
REMARK  250  A    between atoms: _631  and  _634
REMARK  251  A    between atoms: _634  and  _635
REMARK  252  A    between atoms: _640  and  _641
REMARK  253  A    between atoms: _643  and  _645
REMARK  254  A    between atoms: _645  and  _646
REMARK  255  A    between atoms: _645  and  _648
REMARK  256  A    between atoms: _648  and  _649
REMARK  257  A    between atoms: _649  and  _650
REMARK  258  A    between atoms: _650  and  _651
REMARK  259  A    between atoms: _661  and  _662
REMARK  260  A    between atoms: _667  and  _669
REMARK  261  A    between atoms: _669  and  _670
REMARK  262  A    between atoms: _672  and  _674
REMARK  263  A    between atoms: _674  and  _675
REMARK  264  A    between atoms: _678  and  _679
REMARK  265  A    between atoms: _684  and  _686
REMARK  266  A    between atoms: _686  and  _687
REMARK  267  A    between atoms: _686  and  _689
REMARK  268  A    between atoms: _689  and  _690
REMARK  269  A    between atoms: _693  and  _695
REMARK  270  A    between atoms: _695  and  _696
REMARK  271  A    between atoms: _695  and  _698
REMARK  272  A    between atoms: _698  and  _699
REMARK  273  A    between atoms: _702  and  _704
REMARK  274  A    between atoms: _704  and  _705
REMARK  275  A    between atoms: _708  and  _710
REMARK  276  A    between atoms: _710  and  _711
REMARK  277  A    between atoms: _710  and  _713
REMARK  278  A    between atoms: _713  and  _714
REMARK  279  A    between atoms: _714  and  _715
REMARK  280  A    between atoms: _720  and  _722
REMARK  281  A    between atoms: _722  and  _723
REMARK  282  A    between atoms: _722  and  _725
REMARK                            x       y       z     vdW  Elec       q    Type
REMARK                         _______ _______ _______ _____ _____    ______ ____
ROOT
ATOM      1  O   HOH     1       0.659  35.329   7.555  0.00  0.00    +0.000 OA
ENDROOT
TORSDOF 0
REMARK  Name = ../refined-set-2016/4w97/4w97_pocket.pdb
REMARK  282 active torsions:
REMARK  status: ('A' for Active; 'I' for Inactive)
REMARK    1  A    between atoms: _1  and  _3
REMARK    2  A    between atoms: _3  and  _4
REMARK    3  A    between atoms: _3  and  _6
REMARK    4  A    between atoms: _6  and  _7
REMARK    5  A    between atoms: _10  and  _12
REMARK    6  A    between atoms: _12  and  _13
REMARK    7  A    between atoms: _12  and  _15
REMARK    8  A    between atoms: _15  and  _16
REMARK    9  A    between atoms: _22  and  _24
REMARK   10  A    between atoms: _24  and  _25
REMARK   11  A    between atoms: _24  and  _27
REMARK   12  A    between atoms: _27  and  _28
REMARK   13  A    between atoms: _31  and  _33
REMARK   14  A    between atoms: _33  and  _34
REMARK   15  A    between atoms: _33  and  _36
REMARK   16  A    between atoms: _36  and  _37
REMARK   17  A    between atoms: _40  and  _42
REMARK   18  A    between atoms: _42  and  _43
REMARK   19  A    between atoms: _42  and  _45
REMARK   20  A    between atoms: _45  and  _46
REMARK   21  A    between atoms: _52  and  _54
REMARK   22  A    between atoms: _54  and  _55
REMARK   23  A    between atoms: _54  and  _57
REMARK   24  A    between atoms: _57  and  _58
REMARK   25  A    between atoms: _63  and  _64
REMARK   26  A    between atoms: _66  and  _68
REMARK   27  A    between atoms: _68  and  _69
REMARK   28  A    between atoms: _68  and  _71
REMARK   29  A    between atoms: _71  and  _72
REMARK   30  A    between atoms: _74  and  _76
REMARK   31  A    between atoms: _76  and  _77
REMARK   32  A    between atoms: _80  and  _82
REMARK   33  A    between atoms: _82  and  _83
REMARK   34  A    between atoms: _82  and  _85
REMARK   35  A    between atoms: _85  and  _86
REMARK   36  A    between atoms: _89  and  _91
REMARK   37  A    between atoms: _91  and  _92
REMARK   38  A    between atoms: _91  and  _94
REMARK   39  A    between atoms: _94  and  _95
REMARK   40  A    between atoms: _95  and  _96
REMARK   41  A    between atoms: _101  and  _103
REMARK   42  A    between atoms: _103  and  _104
REMARK   43  A    between atoms: _103  and  _106
REMARK   44  A    between atoms: _109  and  _111
REMARK   45  A    between atoms: _111  and  _112
REMARK   46  A    between atoms: _111  and  _114
REMARK   47  A    between atoms: _117  and  _119
REMARK   48  A    between atoms: _119  and  _120
REMARK   49  A    between atoms: _119  and  _122
REMARK   50  A    between atoms: _122  and  _123
REMARK   51  A    between atoms: _126  and  _128
REMARK   52  A    between atoms: _128  and  _129
REMARK   53  A    between atoms: _128  and  _131
REMARK   54  A    between atoms: _131  and  _132
REMARK   55  A    between atoms: _137  and  _138
REMARK   56  A    between atoms: _140  and  _142
REMARK   57  A    between atoms: _142  and  _143
REMARK   58  A    between atoms: _142  and  _145
REMARK   59  A    between atoms: _145  and  _146
REMARK   60  A    between atoms: _146  and  _147
REMARK   61  A    between atoms: _152  and  _154
REMARK   62  A    between atoms: _154  and  _155
REMARK   63  A    between atoms: _154  and  _157
REMARK   64  A    between atoms: _157  and  _158
REMARK   65  A    between atoms: _161  and  _163
REMARK   66  A    between atoms: _163  and  _164
REMARK   67  A    between atoms: _163  and  _166
REMARK   68  A    between atoms: _166  and  _167
REMARK   69  A    between atoms: _167  and  _168
REMARK   70  A    between atoms: _171  and  _173
REMARK   71  A    between atoms: _173  and  _174
REMARK   72  A    between atoms: _177  and  _179
REMARK   73  A    between atoms: _179  and  _180
REMARK   74  A    between atoms: _179  and  _182
REMARK   75  A    between atoms: _182  and  _183
REMARK   76  A    between atoms: _183  and  _184
REMARK   77  A    between atoms: _189  and  _191
REMARK   78  A    between atoms: _191  and  _192
REMARK   79  A    between atoms: _191  and  _194
REMARK   80  A    between atoms: _194  and  _195
REMARK   81  A    between atoms: _195  and  _196
REMARK   82  A    between atoms: _196  and  _197
REMARK   83  A    between atoms: _206  and  _208
REMARK   84  A    between atoms: _208  and  _209
REMARK   85  A    between atoms: _212  and  _214
REMARK   86  A    between atoms: _214  and  _215
REMARK   87  A    between atoms: _214  and  _217
REMARK   88  A    between atoms: _217  and  _218
REMARK   89  A    between atoms: _223  and  _224
REMARK   90  A    between atoms: _226  and  _228
REMARK   91  A    between atoms: _228  and  _229
REMARK   92  A    between atoms: _228  and  _231
REMARK   93  A    between atoms: _231  and  _232
REMARK   94  A    between atoms: _235  and  _237
REMARK   95  A    between atoms: _237  and  _238
REMARK   96  A    between atoms: _237  and  _240
REMARK   97  A    between atoms: _240  and  _241
REMARK   98  A    between atoms: _241  and  _242
REMARK   99  A    between atoms: _245  and  _247
REMARK  100  A    between atoms: _247  and  _248
REMARK  101  A    between atoms: _247  and  _250
REMARK  102  A    between atoms: _250  and  _251
REMARK  103  A    between atoms: _254  and  _256
REMARK  104  A    between atoms: _256  and  _257
REMARK  105  A    between atoms: _256  and  _259
REMARK  106  A    between atoms: _259  and  _260
REMARK  107  A    between atoms: _260  and  _261
REMARK  108  A    between atoms: _261  and  _262
REMARK  109  A    between atoms: _271  and  _273
REMARK  110  A    between atoms: _273  and  _274
REMARK  111  A    between atoms: _273  and  _276
REMARK  112  A    between atoms: _276  and  _277
REMARK  113  A    between atoms: _282  and  _284
REMARK  114  A    between atoms: _284  and  _285
REMARK  115  A    between atoms: _284  and  _287
REMARK  116  A    between atoms: _287  and  _288
REMARK  117  A    between atoms: _288  and  _289
REMARK  118  A    between atoms: _289  and  _290
REMARK  119  A    between atoms: _290  and  _291
REMARK  120  A    between atoms: _295  and  _297
REMARK  121  A    between atoms: _297  and  _298
REMARK  122  A    between atoms: _297  and  _300
REMARK  123  A    between atoms: _300  and  _301
REMARK  124  A    between atoms: _301  and  _302
REMARK  125  A    between atoms: _307  and  _309
REMARK  126  A    between atoms: _309  and  _310
REMARK  127  A    between atoms: _309  and  _312
REMARK  128  A    between atoms: _312  and  _313
REMARK  129  A    between atoms: _313  and  _314
REMARK  130  A    between atoms: _319  and  _321
REMARK  131  A    between atoms: _321  and  _322
REMARK  132  A    between atoms: _321  and  _324
REMARK  133  A    between atoms: _324  and  _325
REMARK  134  A    between atoms: _325  and  _326
REMARK  135  A    between atoms: _326  and  _327
REMARK  136  A    between atoms: _336  and  _338
REMARK  137  A    between atoms: _338  and  _339
REMARK  138  A    between atoms: _338  and  _341
REMARK  139  A    between atoms: _341  and  _342
REMARK  140  A    between atoms: _342  and  _343
REMARK  141  A    between atoms: _345  and  _347
REMARK  142  A    between atoms: _347  and  _348
REMARK  143  A    between atoms: _347  and  _350
REMARK  144  A    between atoms: _350  and  _351
REMARK  145  A    between atoms: _361  and  _363
REMARK  146  A    between atoms: _363  and  _364
REMARK  147  A    between atoms: _363  and  _366
REMARK  148  A    between atoms: _366  and  _367
REMARK  149  A    between atoms: _370  and  _372
REMARK  150  A    between atoms: _372  and  _373
REMARK  151  A    between atoms: _372  and  _375
REMARK  152  A    between atoms: _375  and  _376
REMARK  153  A    between atoms: _379  and  _381
REMARK  154  A    between atoms: _381  and  _382
REMARK  155  A    between atoms: _381  and  _384
REMARK  156  A    between atoms: _384  and  _385
REMARK  157  A    between atoms: _388  and  _390
REMARK  158  A    between atoms: _390  and  _391
REMARK  159  A    between atoms: _390  and  _393
REMARK  160  A    between atoms: _393  and  _394
REMARK  161  A    between atoms: _399  and  _400
REMARK  162  A    between atoms: _402  and  _404
REMARK  163  A    between atoms: _404  and  _405
REMARK  164  A    between atoms: _404  and  _407
REMARK  165  A    between atoms: _407  and  _408
REMARK  166  A    between atoms: _408  and  _409
REMARK  167  A    between atoms: _409  and  _410
REMARK  168  A    between atoms: _419  and  _421
REMARK  169  A    between atoms: _421  and  _422
REMARK  170  A    between atoms: _421  and  _424
REMARK  171  A    between atoms: _424  and  _425
REMARK  172  A    between atoms: _431  and  _433
REMARK  173  A    between atoms: _433  and  _434
REMARK  174  A    between atoms: _433  and  _436
REMARK  175  A    between atoms: _436  and  _437
REMARK  176  A    between atoms: _440  and  _442
REMARK  177  A    between atoms: _442  and  _443
REMARK  178  A    between atoms: _442  and  _445
REMARK  179  A    between atoms: _445  and  _446
REMARK  180  A    between atoms: _446  and  _447
REMARK  181  A    between atoms: _447  and  _448
REMARK  182  A    between atoms: _457  and  _459
REMARK  183  A    between atoms: _459  and  _460
REMARK  184  A    between atoms: _459  and  _462
REMARK  185  A    between atoms: _462  and  _463
REMARK  186  A    between atoms: _466  and  _468
REMARK  187  A    between atoms: _468  and  _469
REMARK  188  A    between atoms: _468  and  _471
REMARK  189  A    between atoms: _471  and  _472
REMARK  190  A    between atoms: _475  and  _477
REMARK  191  A    between atoms: _477  and  _478
REMARK  192  A    between atoms: _477  and  _480
REMARK  193  A    between atoms: _480  and  _481
REMARK  194  A    between atoms: _484  and  _486
REMARK  195  A    between atoms: _486  and  _487
REMARK  196  A    between atoms: _486  and  _489
REMARK  197  A    between atoms: _489  and  _490
REMARK  198  A    between atoms: _500  and  _502
REMARK  199  A    between atoms: _502  and  _503
REMARK  200  A    between atoms: _502  and  _505
REMARK  201  A    between atoms: _508  and  _510
REMARK  202  A    between atoms: _510  and  _511
REMARK  203  A    between atoms: _510  and  _513
REMARK  204  A    between atoms: _513  and  _514
REMARK  205  A    between atoms: _516  and  _518
REMARK  206  A    between atoms: _518  and  _519
REMARK  207  A    between atoms: _518  and  _521
REMARK  208  A    between atoms: _524  and  _526
REMARK  209  A    between atoms: _526  and  _527
REMARK  210  A    between atoms: _526  and  _529
REMARK  211  A    between atoms: _529  and  _530
REMARK  212  A    between atoms: _530  and  _531
REMARK  213  A    between atoms: _531  and  _532
REMARK  214  A    between atoms: _541  and  _543
REMARK  215  A    between atoms: _543  and  _544
REMARK  216  A    between atoms: _543  and  _546
REMARK  217  A    between atoms: _546  and  _547
REMARK  218  A    between atoms: _547  and  _548
REMARK  219  A    between atoms: _551  and  _553
REMARK  220  A    between atoms: _553  and  _554
REMARK  221  A    between atoms: _553  and  _556
REMARK  222  A    between atoms: _556  and  _557
REMARK  223  A    between atoms: _557  and  _558
REMARK  224  A    between atoms: _563  and  _565
REMARK  225  A    between atoms: _565  and  _566
REMARK  226  A    between atoms: _565  and  _568
REMARK  227  A    between atoms: _568  and  _569
REMARK  228  A    between atoms: _572  and  _574
REMARK  229  A    between atoms: _574  and  _575
REMARK  230  A    between atoms: _574  and  _577
REMARK  231  A    between atoms: _580  and  _582
REMARK  232  A    between atoms: _582  and  _583
REMARK  233  A    between atoms: _582  and  _585
REMARK  234  A    between atoms: _585  and  _586
REMARK  235  A    between atoms: _588  and  _590
REMARK  236  A    between atoms: _590  and  _591
REMARK  237  A    between atoms: _590  and  _593
REMARK  238  A    between atoms: _596  and  _598
REMARK  239  A    between atoms: _598  and  _599
REMARK  240  A    between atoms: _598  and  _601
REMARK  241  A    between atoms: _601  and  _602
REMARK  242  A    between atoms: _602  and  _603
REMARK  243  A    between atoms: _603  and  _604
REMARK  244  A    between atoms: _613  and  _615
REMARK  245  A    between atoms: _615  and  _616
REMARK  246  A    between atoms: _615  and  _618
REMARK  247  A    between atoms: _618  and  _619
REMARK  248  A    between atoms: _629  and  _631
REMARK  249  A    between atoms: _631  and  _632
REMARK  250  A    between atoms: _631  and  _634
REMARK  251  A    between atoms: _634  and  _635
REMARK  252  A    between atoms: _640  and  _641
REMARK  253  A    between atoms: _643  and  _645
REMARK  254  A    between atoms: _645  and  _646
REMARK  255  A    between atoms: _645  and  _648
REMARK  256  A    between atoms: _648  and  _649
REMARK  257  A    between atoms: _649  and  _650
REMARK  258  A    between atoms: _650  and  _651
REMARK  259  A    between atoms: _661  and  _662
REMARK  260  A    between atoms: _667  and  _669
REMARK  261  A    between atoms: _669  and  _670
REMARK  262  A    between atoms: _672  and  _674
REMARK  263  A    between atoms: _674  and  _675
REMARK  264  A    between atoms: _678  and  _679
REMARK  265  A    between atoms: _684  and  _686
REMARK  266  A    between atoms: _686  and  _687
REMARK  267  A    between atoms: _686  and  _689
REMARK  268  A    between atoms: _689  and  _690
REMARK  269  A    between atoms: _693  and  _695
REMARK  270  A    between atoms: _695  and  _696
REMARK  271  A    between atoms: _695  and  _698
REMARK  272  A    between atoms: _698  and  _699
REMARK  273  A    between atoms: _702  and  _704
REMARK  274  A    between atoms: _704  and  _705
REMARK  275  A    between atoms: _708  and  _710
REMARK  276  A    between atoms: _710  and  _711
REMARK  277  A    between atoms: _710  and  _713
REMARK  278  A    between atoms: _713  and  _714
REMARK  279  A    between atoms: _714  and  _715
REMARK  280  A    between atoms: _720  and  _722
REMARK  281  A    between atoms: _722  and  _723
REMARK  282  A    between atoms: _722  and  _725
REMARK                            x       y       z     vdW  Elec       q    Type
REMARK                         _______ _______ _______ _____ _____    ______ ____
ROOT
ATOM      1  O   HOH     1     -13.847  46.128  20.974  0.00  0.00    +0.000 OA
ENDROOT
TORSDOF 0
REMARK  Name = ../refined-set-2016/4w97/4w97_pocket.pdb
REMARK  282 active torsions:
REMARK  status: ('A' for Active; 'I' for Inactive)
REMARK    1  A    between atoms: _1  and  _3
REMARK    2  A    between atoms: _3  and  _4
REMARK    3  A    between atoms: _3  and  _6
REMARK    4  A    between atoms: _6  and  _7
REMARK    5  A    between atoms: _10  and  _12
REMARK    6  A    between atoms: _12  and  _13
REMARK    7  A    between atoms: _12  and  _15
REMARK    8  A    between atoms: _15  and  _16
REMARK    9  A    between atoms: _22  and  _24
REMARK   10  A    between atoms: _24  and  _25
REMARK   11  A    between atoms: _24  and  _27
REMARK   12  A    between atoms: _27  and  _28
REMARK   13  A    between atoms: _31  and  _33
REMARK   14  A    between atoms: _33  and  _34
REMARK   15  A    between atoms: _33  and  _36
REMARK   16  A    between atoms: _36  and  _37
REMARK   17  A    between atoms: _40  and  _42
REMARK   18  A    between atoms: _42  and  _43
REMARK   19  A    between atoms: _42  and  _45
REMARK   20  A    between atoms: _45  and  _46
REMARK   21  A    between atoms: _52  and  _54
REMARK   22  A    between atoms: _54  and  _55
REMARK   23  A    between atoms: _54  and  _57
REMARK   24  A    between atoms: _57  and  _58
REMARK   25  A    between atoms: _63  and  _64
REMARK   26  A    between atoms: _66  and  _68
REMARK   27  A    between atoms: _68  and  _69
REMARK   28  A    between atoms: _68  and  _71
REMARK   29  A    between atoms: _71  and  _72
REMARK   30  A    between atoms: _74  and  _76
REMARK   31  A    between atoms: _76  and  _77
REMARK   32  A    between atoms: _80  and  _82
REMARK   33  A    between atoms: _82  and  _83
REMARK   34  A    between atoms: _82  and  _85
REMARK   35  A    between atoms: _85  and  _86
REMARK   36  A    between atoms: _89  and  _91
REMARK   37  A    between atoms: _91  and  _92
REMARK   38  A    between atoms: _91  and  _94
REMARK   39  A    between atoms: _94  and  _95
REMARK   40  A    between atoms: _95  and  _96
REMARK   41  A    between atoms: _101  and  _103
REMARK   42  A    between atoms: _103  and  _104
REMARK   43  A    between atoms: _103  and  _106
REMARK   44  A    between atoms: _109  and  _111
REMARK   45  A    between atoms: _111  and  _112
REMARK   46  A    between atoms: _111  and  _114
REMARK   47  A    between atoms: _117  and  _119
REMARK   48  A    between atoms: _119  and  _120
REMARK   49  A    between atoms: _119  and  _122
REMARK   50  A    between atoms: _122  and  _123
REMARK   51  A    between atoms: _126  and  _128
REMARK   52  A    between atoms: _128  and  _129
REMARK   53  A    between atoms: _128  and  _131
REMARK   54  A    between atoms: _131  and  _132
REMARK   55  A    between atoms: _137  and  _138
REMARK   56  A    between atoms: _140  and  _142
REMARK   57  A    between atoms: _142  and  _143
REMARK   58  A    between atoms: _142  and  _145
REMARK   59  A    between atoms: _145  and  _146
REMARK   60  A    between atoms: _146  and  _147
REMARK   61  A    between atoms: _152  and  _154
REMARK   62  A    between atoms: _154  and  _155
REMARK   63  A    between atoms: _154  and  _157
REMARK   64  A    between atoms: _157  and  _158
REMARK   65  A    between atoms: _161  and  _163
REMARK   66  A    between atoms: _163  and  _164
REMARK   67  A    between atoms: _163  and  _166
REMARK   68  A    between atoms: _166  and  _167
REMARK   69  A    between atoms: _167  and  _168
REMARK   70  A    between atoms: _171  and  _173
REMARK   71  A    between atoms: _173  and  _174
REMARK   72  A    between atoms: _177  and  _179
REMARK   73  A    between atoms: _179  and  _180
REMARK   74  A    between atoms: _179  and  _182
REMARK   75  A    between atoms: _182  and  _183
REMARK   76  A    between atoms: _183  and  _184
REMARK   77  A    between atoms: _189  and  _191
REMARK   78  A    between atoms: _191  and  _192
REMARK   79  A    between atoms: _191  and  _194
REMARK   80  A    between atoms: _194  and  _195
REMARK   81  A    between atoms: _195  and  _196
REMARK   82  A    between atoms: _196  and  _197
REMARK   83  A    between atoms: _206  and  _208
REMARK   84  A    between atoms: _208  and  _209
REMARK   85  A    between atoms: _212  and  _214
REMARK   86  A    between atoms: _214  and  _215
REMARK   87  A    between atoms: _214  and  _217
REMARK   88  A    between atoms: _217  and  _218
REMARK   89  A    between atoms: _223  and  _224
REMARK   90  A    between atoms: _226  and  _228
REMARK   91  A    between atoms: _228  and  _229
REMARK   92  A    between atoms: _228  and  _231
REMARK   93  A    between atoms: _231  and  _232
REMARK   94  A    between atoms: _235  and  _237
REMARK   95  A    between atoms: _237  and  _238
REMARK   96  A    between atoms: _237  and  _240
REMARK   97  A    between atoms: _240  and  _241
REMARK   98  A    between atoms: _241  and  _242
REMARK   99  A    between atoms: _245  and  _247
REMARK  100  A    between atoms: _247  and  _248
REMARK  101  A    between atoms: _247  and  _250
REMARK  102  A    between atoms: _250  and  _251
REMARK  103  A    between atoms: _254  and  _256
REMARK  104  A    between atoms: _256  and  _257
REMARK  105  A    between atoms: _256  and  _259
REMARK  106  A    between atoms: _259  and  _260
REMARK  107  A    between atoms: _260  and  _261
REMARK  108  A    between atoms: _261  and  _262
REMARK  109  A    between atoms: _271  and  _273
REMARK  110  A    between atoms: _273  and  _274
REMARK  111  A    between atoms: _273  and  _276
REMARK  112  A    between atoms: _276  and  _277
REMARK  113  A    between atoms: _282  and  _284
REMARK  114  A    between atoms: _284  and  _285
REMARK  115  A    between atoms: _284  and  _287
REMARK  116  A    between atoms: _287  and  _288
REMARK  117  A    between atoms: _288  and  _289
REMARK  118  A    between atoms: _289  and  _290
REMARK  119  A    between atoms: _290  and  _291
REMARK  120  A    between atoms: _295  and  _297
REMARK  121  A    between atoms: _297  and  _298
REMARK  122  A    between atoms: _297  and  _300
REMARK  123  A    between atoms: _300  and  _301
REMARK  124  A    between atoms: _301  and  _302
REMARK  125  A    between atoms: _307  and  _309
REMARK  126  A    between atoms: _309  and  _310
REMARK  127  A    between atoms: _309  and  _312
REMARK  128  A    between atoms: _312  and  _313
REMARK  129  A    between atoms: _313  and  _314
REMARK  130  A    between atoms: _319  and  _321
REMARK  131  A    between atoms: _321  and  _322
REMARK  132  A    between atoms: _321  and  _324
REMARK  133  A    between atoms: _324  and  _325
REMARK  134  A    between atoms: _325  and  _326
REMARK  135  A    between atoms: _326  and  _327
REMARK  136  A    between atoms: _336  and  _338
REMARK  137  A    between atoms: _338  and  _339
REMARK  138  A    between atoms: _338  and  _341
REMARK  139  A    between atoms: _341  and  _342
REMARK  140  A    between atoms: _342  and  _343
REMARK  141  A    between atoms: _345  and  _347
REMARK  142  A    between atoms: _347  and  _348
REMARK  143  A    between atoms: _347  and  _350
REMARK  144  A    between atoms: _350  and  _351
REMARK  145  A    between atoms: _361  and  _363
REMARK  146  A    between atoms: _363  and  _364
REMARK  147  A    between atoms: _363  and  _366
REMARK  148  A    between atoms: _366  and  _367
REMARK  149  A    between atoms: _370  and  _372
REMARK  150  A    between atoms: _372  and  _373
REMARK  151  A    between atoms: _372  and  _375
REMARK  152  A    between atoms: _375  and  _376
REMARK  153  A    between atoms: _379  and  _381
REMARK  154  A    between atoms: _381  and  _382
REMARK  155  A    between atoms: _381  and  _384
REMARK  156  A    between atoms: _384  and  _385
REMARK  157  A    between atoms: _388  and  _390
REMARK  158  A    between atoms: _390  and  _391
REMARK  159  A    between atoms: _390  and  _393
REMARK  160  A    between atoms: _393  and  _394
REMARK  161  A    between atoms: _399  and  _400
REMARK  162  A    between atoms: _402  and  _404
REMARK  163  A    between atoms: _404  and  _405
REMARK  164  A    between atoms: _404  and  _407
REMARK  165  A    between atoms: _407  and  _408
REMARK  166  A    between atoms: _408  and  _409
REMARK  167  A    between atoms: _409  and  _410
REMARK  168  A    between atoms: _419  and  _421
REMARK  169  A    between atoms: _421  and  _422
REMARK  170  A    between atoms: _421  and  _424
REMARK  171  A    between atoms: _424  and  _425
REMARK  172  A    between atoms: _431  and  _433
REMARK  173  A    between atoms: _433  and  _434
REMARK  174  A    between atoms: _433  and  _436
REMARK  175  A    between atoms: _436  and  _437
REMARK  176  A    between atoms: _440  and  _442
REMARK  177  A    between atoms: _442  and  _443
REMARK  178  A    between atoms: _442  and  _445
REMARK  179  A    between atoms: _445  and  _446
REMARK  180  A    between atoms: _446  and  _447
REMARK  181  A    between atoms: _447  and  _448
REMARK  182  A    between atoms: _457  and  _459
REMARK  183  A    between atoms: _459  and  _460
REMARK  184  A    between atoms: _459  and  _462
REMARK  185  A    between atoms: _462  and  _463
REMARK  186  A    between atoms: _466  and  _468
REMARK  187  A    between atoms: _468  and  _469
REMARK  188  A    between atoms: _468  and  _471
REMARK  189  A    between atoms: _471  and  _472
REMARK  190  A    between atoms: _475  and  _477
REMARK  191  A    between atoms: _477  and  _478
REMARK  192  A    between atoms: _477  and  _480
REMARK  193  A    between atoms: _480  and  _481
REMARK  194  A    between atoms: _484  and  _486
REMARK  195  A    between atoms: _486  and  _487
REMARK  196  A    between atoms: _486  and  _489
REMARK  197  A    between atoms: _489  and  _490
REMARK  198  A    between atoms: _500  and  _502
REMARK  199  A    between atoms: _502  and  _503
REMARK  200  A    between atoms: _502  and  _505
REMARK  201  A    between atoms: _508  and  _510
REMARK  202  A    between atoms: _510  and  _511
REMARK  203  A    between atoms: _510  and  _513
REMARK  204  A    between atoms: _513  and  _514
REMARK  205  A    between atoms: _516  and  _518
REMARK  206  A    between atoms: _518  and  _519
REMARK  207  A    between atoms: _518  and  _521
REMARK  208  A    between atoms: _524  and  _526
REMARK  209  A    between atoms: _526  and  _527
REMARK  210  A    between atoms: _526  and  _529
REMARK  211  A    between atoms: _529  and  _530
REMARK  212  A    between atoms: _530  and  _531
REMARK  213  A    between atoms: _531  and  _532
REMARK  214  A    between atoms: _541  and  _543
REMARK  215  A    between atoms: _543  and  _544
REMARK  216  A    between atoms: _543  and  _546
REMARK  217  A    between atoms: _546  and  _547
REMARK  218  A    between atoms: _547  and  _548
REMARK  219  A    between atoms: _551  and  _553
REMARK  220  A    between atoms: _553  and  _554
REMARK  221  A    between atoms: _553  and  _556
REMARK  222  A    between atoms: _556  and  _557
REMARK  223  A    between atoms: _557  and  _558
REMARK  224  A    between atoms: _563  and  _565
REMARK  225  A    between atoms: _565  and  _566
REMARK  226  A    between atoms: _565  and  _568
REMARK  227  A    between atoms: _568  and  _569
REMARK  228  A    between atoms: _572  and  _574
REMARK  229  A    between atoms: _574  and  _575
REMARK  230  A    between atoms: _574  and  _577
REMARK  231  A    between atoms: _580  and  _582
REMARK  232  A    between atoms: _582  and  _583
REMARK  233  A    between atoms: _582  and  _585
REMARK  234  A    between atoms: _585  and  _586
REMARK  235  A    between atoms: _588  and  _590
REMARK  236  A    between atoms: _590  and  _591
REMARK  237  A    between atoms: _590  and  _593
REMARK  238  A    between atoms: _596  and  _598
REMARK  239  A    between atoms: _598  and  _599
REMARK  240  A    between atoms: _598  and  _601
REMARK  241  A    between atoms: _601  and  _602
REMARK  242  A    between atoms: _602  and  _603
REMARK  243  A    between atoms: _603  and  _604
REMARK  244  A    between atoms: _613  and  _615
REMARK  245  A    between atoms: _615  and  _616
REMARK  246  A    between atoms: _615  and  _618
REMARK  247  A    between atoms: _618  and  _619
REMARK  248  A    between atoms: _629  and  _631
REMARK  249  A    between atoms: _631  and  _632
REMARK  250  A    between atoms: _631  and  _634
REMARK  251  A    between atoms: _634  and  _635
REMARK  252  A    between atoms: _640  and  _641
REMARK  253  A    between atoms: _643  and  _645
REMARK  254  A    between atoms: _645  and  _646
REMARK  255  A    between atoms: _645  and  _648
REMARK  256  A    between atoms: _648  and  _649
REMARK  257  A    between atoms: _649  and  _650
REMARK  258  A    between atoms: _650  and  _651
REMARK  259  A    between atoms: _661  and  _662
REMARK  260  A    between atoms: _667  and  _669
REMARK  261  A    between atoms: _669  and  _670
REMARK  262  A    between atoms: _672  and  _674
REMARK  263  A    between atoms: _674  and  _675
REMARK  264  A    between atoms: _678  and  _679
REMARK  265  A    between atoms: _684  and  _686
REMARK  266  A    between atoms: _686  and  _687
REMARK  267  A    between atoms: _686  and  _689
REMARK  268  A    between atoms: _689  and  _690
REMARK  269  A    between atoms: _693  and  _695
REMARK  270  A    between atoms: _695  and  _696
REMARK  271  A    between atoms: _695  and  _698
REMARK  272  A    between atoms: _698  and  _699
REMARK  273  A    between atoms: _702  and  _704
REMARK  274  A    between atoms: _704  and  _705
REMARK  275  A    between atoms: _708  and  _710
REMARK  276  A    between atoms: _710  and  _711
REMARK  277  A    between atoms: _710  and  _713
REMARK  278  A    between atoms: _713  and  _714
REMARK  279  A    between atoms: _714  and  _715
REMARK  280  A    between atoms: _720  and  _722
REMARK  281  A    between atoms: _722  and  _723
REMARK  282  A    between atoms: _722  and  _725
REMARK                            x       y       z     vdW  Elec       q    Type
REMARK                         _______ _______ _______ _____ _____    ______ ____
ROOT
ATOM      1  O   HOH     1      -6.401  33.555   7.114  0.00  0.00    +0.000 OA
ENDROOT
TORSDOF 0
REMARK  Name = ../refined-set-2016/4w97/4w97_pocket.pdb
REMARK  282 active torsions:
REMARK  status: ('A' for Active; 'I' for Inactive)
REMARK    1  A    between atoms: _1  and  _3
REMARK    2  A    between atoms: _3  and  _4
REMARK    3  A    between atoms: _3  and  _6
REMARK    4  A    between atoms: _6  and  _7
REMARK    5  A    between atoms: _10  and  _12
REMARK    6  A    between atoms: _12  and  _13
REMARK    7  A    between atoms: _12  and  _15
REMARK    8  A    between atoms: _15  and  _16
REMARK    9  A    between atoms: _22  and  _24
REMARK   10  A    between atoms: _24  and  _25
REMARK   11  A    between atoms: _24  and  _27
REMARK   12  A    between atoms: _27  and  _28
REMARK   13  A    between atoms: _31  and  _33
REMARK   14  A    between atoms: _33  and  _34
REMARK   15  A    between atoms: _33  and  _36
REMARK   16  A    between atoms: _36  and  _37
REMARK   17  A    between atoms: _40  and  _42
REMARK   18  A    between atoms: _42  and  _43
REMARK   19  A    between atoms: _42  and  _45
REMARK   20  A    between atoms: _45  and  _46
REMARK   21  A    between atoms: _52  and  _54
REMARK   22  A    between atoms: _54  and  _55
REMARK   23  A    between atoms: _54  and  _57
REMARK   24  A    between atoms: _57  and  _58
REMARK   25  A    between atoms: _63  and  _64
REMARK   26  A    between atoms: _66  and  _68
REMARK   27  A    between atoms: _68  and  _69
REMARK   28  A    between atoms: _68  and  _71
REMARK   29  A    between atoms: _71  and  _72
REMARK   30  A    between atoms: _74  and  _76
REMARK   31  A    between atoms: _76  and  _77
REMARK   32  A    between atoms: _80  and  _82
REMARK   33  A    between atoms: _82  and  _83
REMARK   34  A    between atoms: _82  and  _85
REMARK   35  A    between atoms: _85  and  _86
REMARK   36  A    between atoms: _89  and  _91
REMARK   37  A    between atoms: _91  and  _92
REMARK   38  A    between atoms: _91  and  _94
REMARK   39  A    between atoms: _94  and  _95
REMARK   40  A    between atoms: _95  and  _96
REMARK   41  A    between atoms: _101  and  _103
REMARK   42  A    between atoms: _103  and  _104
REMARK   43  A    between atoms: _103  and  _106
REMARK   44  A    between atoms: _109  and  _111
REMARK   45  A    between atoms: _111  and  _112
REMARK   46  A    between atoms: _111  and  _114
REMARK   47  A    between atoms: _117  and  _119
REMARK   48  A    between atoms: _119  and  _120
REMARK   49  A    between atoms: _119  and  _122
REMARK   50  A    between atoms: _122  and  _123
REMARK   51  A    between atoms: _126  and  _128
REMARK   52  A    between atoms: _128  and  _129
REMARK   53  A    between atoms: _128  and  _131
REMARK   54  A    between atoms: _131  and  _132
REMARK   55  A    between atoms: _137  and  _138
REMARK   56  A    between atoms: _140  and  _142
REMARK   57  A    between atoms: _142  and  _143
REMARK   58  A    between atoms: _142  and  _145
REMARK   59  A    between atoms: _145  and  _146
REMARK   60  A    between atoms: _146  and  _147
REMARK   61  A    between atoms: _152  and  _154
REMARK   62  A    between atoms: _154  and  _155
REMARK   63  A    between atoms: _154  and  _157
REMARK   64  A    between atoms: _157  and  _158
REMARK   65  A    between atoms: _161  and  _163
REMARK   66  A    between atoms: _163  and  _164
REMARK   67  A    between atoms: _163  and  _166
REMARK   68  A    between atoms: _166  and  _167
REMARK   69  A    between atoms: _167  and  _168
REMARK   70  A    between atoms: _171  and  _173
REMARK   71  A    between atoms: _173  and  _174
REMARK   72  A    between atoms: _177  and  _179
REMARK   73  A    between atoms: _179  and  _180
REMARK   74  A    between atoms: _179  and  _182
REMARK   75  A    between atoms: _182  and  _183
REMARK   76  A    between atoms: _183  and  _184
REMARK   77  A    between atoms: _189  and  _191
REMARK   78  A    between atoms: _191  and  _192
REMARK   79  A    between atoms: _191  and  _194
REMARK   80  A    between atoms: _194  and  _195
REMARK   81  A    between atoms: _195  and  _196
REMARK   82  A    between atoms: _196  and  _197
REMARK   83  A    between atoms: _206  and  _208
REMARK   84  A    between atoms: _208  and  _209
REMARK   85  A    between atoms: _212  and  _214
REMARK   86  A    between atoms: _214  and  _215
REMARK   87  A    between atoms: _214  and  _217
REMARK   88  A    between atoms: _217  and  _218
REMARK   89  A    between atoms: _223  and  _224
REMARK   90  A    between atoms: _226  and  _228
REMARK   91  A    between atoms: _228  and  _229
REMARK   92  A    between atoms: _228  and  _231
REMARK   93  A    between atoms: _231  and  _232
REMARK   94  A    between atoms: _235  and  _237
REMARK   95  A    between atoms: _237  and  _238
REMARK   96  A    between atoms: _237  and  _240
REMARK   97  A    between atoms: _240  and  _241
REMARK   98  A    between atoms: _241  and  _242
REMARK   99  A    between atoms: _245  and  _247
REMARK  100  A    between atoms: _247  and  _248
REMARK  101  A    between atoms: _247  and  _250
REMARK  102  A    between atoms: _250  and  _251
REMARK  103  A    between atoms: _254  and  _256
REMARK  104  A    between atoms: _256  and  _257
REMARK  105  A    between atoms: _256  and  _259
REMARK  106  A    between atoms: _259  and  _260
REMARK  107  A    between atoms: _260  and  _261
REMARK  108  A    between atoms: _261  and  _262
REMARK  109  A    between atoms: _271  and  _273
REMARK  110  A    between atoms: _273  and  _274
REMARK  111  A    between atoms: _273  and  _276
REMARK  112  A    between atoms: _276  and  _277
REMARK  113  A    between atoms: _282  and  _284
REMARK  114  A    between atoms: _284  and  _285
REMARK  115  A    between atoms: _284  and  _287
REMARK  116  A    between atoms: _287  and  _288
REMARK  117  A    between atoms: _288  and  _289
REMARK  118  A    between atoms: _289  and  _290
REMARK  119  A    between atoms: _290  and  _291
REMARK  120  A    between atoms: _295  and  _297
REMARK  121  A    between atoms: _297  and  _298
REMARK  122  A    between atoms: _297  and  _300
REMARK  123  A    between atoms: _300  and  _301
REMARK  124  A    between atoms: _301  and  _302
REMARK  125  A    between atoms: _307  and  _309
REMARK  126  A    between atoms: _309  and  _310
REMARK  127  A    between atoms: _309  and  _312
REMARK  128  A    between atoms: _312  and  _313
REMARK  129  A    between atoms: _313  and  _314
REMARK  130  A    between atoms: _319  and  _321
REMARK  131  A    between atoms: _321  and  _322
REMARK  132  A    between atoms: _321  and  _324
REMARK  133  A    between atoms: _324  and  _325
REMARK  134  A    between atoms: _325  and  _326
REMARK  135  A    between atoms: _326  and  _327
REMARK  136  A    between atoms: _336  and  _338
REMARK  137  A    between atoms: _338  and  _339
REMARK  138  A    between atoms: _338  and  _341
REMARK  139  A    between atoms: _341  and  _342
REMARK  140  A    between atoms: _342  and  _343
REMARK  141  A    between atoms: _345  and  _347
REMARK  142  A    between atoms: _347  and  _348
REMARK  143  A    between atoms: _347  and  _350
REMARK  144  A    between atoms: _350  and  _351
REMARK  145  A    between atoms: _361  and  _363
REMARK  146  A    between atoms: _363  and  _364
REMARK  147  A    between atoms: _363  and  _366
REMARK  148  A    between atoms: _366  and  _367
REMARK  149  A    between atoms: _370  and  _372
REMARK  150  A    between atoms: _372  and  _373
REMARK  151  A    between atoms: _372  and  _375
REMARK  152  A    between atoms: _375  and  _376
REMARK  153  A    between atoms: _379  and  _381
REMARK  154  A    between atoms: _381  and  _382
REMARK  155  A    between atoms: _381  and  _384
REMARK  156  A    between atoms: _384  and  _385
REMARK  157  A    between atoms: _388  and  _390
REMARK  158  A    between atoms: _390  and  _391
REMARK  159  A    between atoms: _390  and  _393
REMARK  160  A    between atoms: _393  and  _394
REMARK  161  A    between atoms: _399  and  _400
REMARK  162  A    between atoms: _402  and  _404
REMARK  163  A    between atoms: _404  and  _405
REMARK  164  A    between atoms: _404  and  _407
REMARK  165  A    between atoms: _407  and  _408
REMARK  166  A    between atoms: _408  and  _409
REMARK  167  A    between atoms: _409  and  _410
REMARK  168  A    between atoms: _419  and  _421
REMARK  169  A    between atoms: _421  and  _422
REMARK  170  A    between atoms: _421  and  _424
REMARK  171  A    between atoms: _424  and  _425
REMARK  172  A    between atoms: _431  and  _433
REMARK  173  A    between atoms: _433  and  _434
REMARK  174  A    between atoms: _433  and  _436
REMARK  175  A    between atoms: _436  and  _437
REMARK  176  A    between atoms: _440  and  _442
REMARK  177  A    between atoms: _442  and  _443
REMARK  178  A    between atoms: _442  and  _445
REMARK  179  A    between atoms: _445  and  _446
REMARK  180  A    between atoms: _446  and  _447
REMARK  181  A    between atoms: _447  and  _448
REMARK  182  A    between atoms: _457  and  _459
REMARK  183  A    between atoms: _459  and  _460
REMARK  184  A    between atoms: _459  and  _462
REMARK  185  A    between atoms: _462  and  _463
REMARK  186  A    between atoms: _466  and  _468
REMARK  187  A    between atoms: _468  and  _469
REMARK  188  A    between atoms: _468  and  _471
REMARK  189  A    between atoms: _471  and  _472
REMARK  190  A    between atoms: _475  and  _477
REMARK  191  A    between atoms: _477  and  _478
REMARK  192  A    between atoms: _477  and  _480
REMARK  193  A    between atoms: _480  and  _481
REMARK  194  A    between atoms: _484  and  _486
REMARK  195  A    between atoms: _486  and  _487
REMARK  196  A    between atoms: _486  and  _489
REMARK  197  A    between atoms: _489  and  _490
REMARK  198  A    between atoms: _500  and  _502
REMARK  199  A    between atoms: _502  and  _503
REMARK  200  A    between atoms: _502  and  _505
REMARK  201  A    between atoms: _508  and  _510
REMARK  202  A    between atoms: _510  and  _511
REMARK  203  A    between atoms: _510  and  _513
REMARK  204  A    between atoms: _513  and  _514
REMARK  205  A    between atoms: _516  and  _518
REMARK  206  A    between atoms: _518  and  _519
REMARK  207  A    between atoms: _518  and  _521
REMARK  208  A    between atoms: _524  and  _526
REMARK  209  A    between atoms: _526  and  _527
REMARK  210  A    between atoms: _526  and  _529
REMARK  211  A    between atoms: _529  and  _530
REMARK  212  A    between atoms: _530  and  _531
REMARK  213  A    between atoms: _531  and  _532
REMARK  214  A    between atoms: _541  and  _543
REMARK  215  A    between atoms: _543  and  _544
REMARK  216  A    between atoms: _543  and  _546
REMARK  217  A    between atoms: _546  and  _547
REMARK  218  A    between atoms: _547  and  _548
REMARK  219  A    between atoms: _551  and  _553
REMARK  220  A    between atoms: _553  and  _554
REMARK  221  A    between atoms: _553  and  _556
REMARK  222  A    between atoms: _556  and  _557
REMARK  223  A    between atoms: _557  and  _558
REMARK  224  A    between atoms: _563  and  _565
REMARK  225  A    between atoms: _565  and  _566
REMARK  226  A    between atoms: _565  and  _568
REMARK  227  A    between atoms: _568  and  _569
REMARK  228  A    between atoms: _572  and  _574
REMARK  229  A    between atoms: _574  and  _575
REMARK  230  A    between atoms: _574  and  _577
REMARK  231  A    between atoms: _580  and  _582
REMARK  232  A    between atoms: _582  and  _583
REMARK  233  A    between atoms: _582  and  _585
REMARK  234  A    between atoms: _585  and  _586
REMARK  235  A    between atoms: _588  and  _590
REMARK  236  A    between atoms: _590  and  _591
REMARK  237  A    between atoms: _590  and  _593
REMARK  238  A    between atoms: _596  and  _598
REMARK  239  A    between atoms: _598  and  _599
REMARK  240  A    between atoms: _598  and  _601
REMARK  241  A    between atoms: _601  and  _602
REMARK  242  A    between atoms: _602  and  _603
REMARK  243  A    between atoms: _603  and  _604
REMARK  244  A    between atoms: _613  and  _615
REMARK  245  A    between atoms: _615  and  _616
REMARK  246  A    between atoms: _615  and  _618
REMARK  247  A    between atoms: _618  and  _619
REMARK  248  A    between atoms: _629  and  _631
REMARK  249  A    between atoms: _631  and  _632
REMARK  250  A    between atoms: _631  and  _634
REMARK  251  A    between atoms: _634  and  _635
REMARK  252  A    between atoms: _640  and  _641
REMARK  253  A    between atoms: _643  and  _645
REMARK  254  A    between atoms: _645  and  _646
REMARK  255  A    between atoms: _645  and  _648
REMARK  256  A    between atoms: _648  and  _649
REMARK  257  A    between atoms: _649  and  _650
REMARK  258  A    between atoms: _650  and  _651
REMARK  259  A    between atoms: _661  and  _662
REMARK  260  A    between atoms: _667  and  _669
REMARK  261  A    between atoms: _669  and  _670
REMARK  262  A    between atoms: _672  and  _674
REMARK  263  A    between atoms: _674  and  _675
REMARK  264  A    between atoms: _678  and  _679
REMARK  265  A    between atoms: _684  and  _686
REMARK  266  A    between atoms: _686  and  _687
REMARK  267  A    between atoms: _686  and  _689
REMARK  268  A    between atoms: _689  and  _690
REMARK  269  A    between atoms: _693  and  _695
REMARK  270  A    between atoms: _695  and  _696
REMARK  271  A    between atoms: _695  and  _698
REMARK  272  A    between atoms: _698  and  _699
REMARK  273  A    between atoms: _702  and  _704
REMARK  274  A    between atoms: _704  and  _705
REMARK  275  A    between atoms: _708  and  _710
REMARK  276  A    between atoms: _710  and  _711
REMARK  277  A    between atoms: _710  and  _713
REMARK  278  A    between atoms: _713  and  _714
REMARK  279  A    between atoms: _714  and  _715
REMARK  280  A    between atoms: _720  and  _722
REMARK  281  A    between atoms: _722  and  _723
REMARK  282  A    between atoms: _722  and  _725
REMARK                            x       y       z     vdW  Elec       q    Type
REMARK                         _______ _______ _______ _____ _____    ______ ____
ROOT
ATOM      1  O   HOH     1      -8.555  46.775  19.803  0.00  0.00    +0.000 OA
ENDROOT
TORSDOF 0
REMARK  Name = ../refined-set-2016/4w97/4w97_pocket.pdb
REMARK  282 active torsions:
REMARK  status: ('A' for Active; 'I' for Inactive)
REMARK    1  A    between atoms: _1  and  _3
REMARK    2  A    between atoms: _3  and  _4
REMARK    3  A    between atoms: _3  and  _6
REMARK    4  A    between atoms: _6  and  _7
REMARK    5  A    between atoms: _10  and  _12
REMARK    6  A    between atoms: _12  and  _13
REMARK    7  A    between atoms: _12  and  _15
REMARK    8  A    between atoms: _15  and  _16
REMARK    9  A    between atoms: _22  and  _24
REMARK   10  A    between atoms: _24  and  _25
REMARK   11  A    between atoms: _24  and  _27
REMARK   12  A    between atoms: _27  and  _28
REMARK   13  A    between atoms: _31  and  _33
REMARK   14  A    between atoms: _33  and  _34
REMARK   15  A    between atoms: _33  and  _36
REMARK   16  A    between atoms: _36  and  _37
REMARK   17  A    between atoms: _40  and  _42
REMARK   18  A    between atoms: _42  and  _43
REMARK   19  A    between atoms: _42  and  _45
REMARK   20  A    between atoms: _45  and  _46
REMARK   21  A    between atoms: _52  and  _54
REMARK   22  A    between atoms: _54  and  _55
REMARK   23  A    between atoms: _54  and  _57
REMARK   24  A    between atoms: _57  and  _58
REMARK   25  A    between atoms: _63  and  _64
REMARK   26  A    between atoms: _66  and  _68
REMARK   27  A    between atoms: _68  and  _69
REMARK   28  A    between atoms: _68  and  _71
REMARK   29  A    between atoms: _71  and  _72
REMARK   30  A    between atoms: _74  and  _76
REMARK   31  A    between atoms: _76  and  _77
REMARK   32  A    between atoms: _80  and  _82
REMARK   33  A    between atoms: _82  and  _83
REMARK   34  A    between atoms: _82  and  _85
REMARK   35  A    between atoms: _85  and  _86
REMARK   36  A    between atoms: _89  and  _91
REMARK   37  A    between atoms: _91  and  _92
REMARK   38  A    between atoms: _91  and  _94
REMARK   39  A    between atoms: _94  and  _95
REMARK   40  A    between atoms: _95  and  _96
REMARK   41  A    between atoms: _101  and  _103
REMARK   42  A    between atoms: _103  and  _104
REMARK   43  A    between atoms: _103  and  _106
REMARK   44  A    between atoms: _109  and  _111
REMARK   45  A    between atoms: _111  and  _112
REMARK   46  A    between atoms: _111  and  _114
REMARK   47  A    between atoms: _117  and  _119
REMARK   48  A    between atoms: _119  and  _120
REMARK   49  A    between atoms: _119  and  _122
REMARK   50  A    between atoms: _122  and  _123
REMARK   51  A    between atoms: _126  and  _128
REMARK   52  A    between atoms: _128  and  _129
REMARK   53  A    between atoms: _128  and  _131
REMARK   54  A    between atoms: _131  and  _132
REMARK   55  A    between atoms: _137  and  _138
REMARK   56  A    between atoms: _140  and  _142
REMARK   57  A    between atoms: _142  and  _143
REMARK   58  A    between atoms: _142  and  _145
REMARK   59  A    between atoms: _145  and  _146
REMARK   60  A    between atoms: _146  and  _147
REMARK   61  A    between atoms: _152  and  _154
REMARK   62  A    between atoms: _154  and  _155
REMARK   63  A    between atoms: _154  and  _157
REMARK   64  A    between atoms: _157  and  _158
REMARK   65  A    between atoms: _161  and  _163
REMARK   66  A    between atoms: _163  and  _164
REMARK   67  A    between atoms: _163  and  _166
REMARK   68  A    between atoms: _166  and  _167
REMARK   69  A    between atoms: _167  and  _168
REMARK   70  A    between atoms: _171  and  _173
REMARK   71  A    between atoms: _173  and  _174
REMARK   72  A    between atoms: _177  and  _179
REMARK   73  A    between atoms: _179  and  _180
REMARK   74  A    between atoms: _179  and  _182
REMARK   75  A    between atoms: _182  and  _183
REMARK   76  A    between atoms: _183  and  _184
REMARK   77  A    between atoms: _189  and  _191
REMARK   78  A    between atoms: _191  and  _192
REMARK   79  A    between atoms: _191  and  _194
REMARK   80  A    between atoms: _194  and  _195
REMARK   81  A    between atoms: _195  and  _196
REMARK   82  A    between atoms: _196  and  _197
REMARK   83  A    between atoms: _206  and  _208
REMARK   84  A    between atoms: _208  and  _209
REMARK   85  A    between atoms: _212  and  _214
REMARK   86  A    between atoms: _214  and  _215
REMARK   87  A    between atoms: _214  and  _217
REMARK   88  A    between atoms: _217  and  _218
REMARK   89  A    between atoms: _223  and  _224
REMARK   90  A    between atoms: _226  and  _228
REMARK   91  A    between atoms: _228  and  _229
REMARK   92  A    between atoms: _228  and  _231
REMARK   93  A    between atoms: _231  and  _232
REMARK   94  A    between atoms: _235  and  _237
REMARK   95  A    between atoms: _237  and  _238
REMARK   96  A    between atoms: _237  and  _240
REMARK   97  A    between atoms: _240  and  _241
REMARK   98  A    between atoms: _241  and  _242
REMARK   99  A    between atoms: _245  and  _247
REMARK  100  A    between atoms: _247  and  _248
REMARK  101  A    between atoms: _247  and  _250
REMARK  102  A    between atoms: _250  and  _251
REMARK  103  A    between atoms: _254  and  _256
REMARK  104  A    between atoms: _256  and  _257
REMARK  105  A    between atoms: _256  and  _259
REMARK  106  A    between atoms: _259  and  _260
REMARK  107  A    between atoms: _260  and  _261
REMARK  108  A    between atoms: _261  and  _262
REMARK  109  A    between atoms: _271  and  _273
REMARK  110  A    between atoms: _273  and  _274
REMARK  111  A    between atoms: _273  and  _276
REMARK  112  A    between atoms: _276  and  _277
REMARK  113  A    between atoms: _282  and  _284
REMARK  114  A    between atoms: _284  and  _285
REMARK  115  A    between atoms: _284  and  _287
REMARK  116  A    between atoms: _287  and  _288
REMARK  117  A    between atoms: _288  and  _289
REMARK  118  A    between atoms: _289  and  _290
REMARK  119  A    between atoms: _290  and  _291
REMARK  120  A    between atoms: _295  and  _297
REMARK  121  A    between atoms: _297  and  _298
REMARK  122  A    between atoms: _297  and  _300
REMARK  123  A    between atoms: _300  and  _301
REMARK  124  A    between atoms: _301  and  _302
REMARK  125  A    between atoms: _307  and  _309
REMARK  126  A    between atoms: _309  and  _310
REMARK  127  A    between atoms: _309  and  _312
REMARK  128  A    between atoms: _312  and  _313
REMARK  129  A    between atoms: _313  and  _314
REMARK  130  A    between atoms: _319  and  _321
REMARK  131  A    between atoms: _321  and  _322
REMARK  132  A    between atoms: _321  and  _324
REMARK  133  A    between atoms: _324  and  _325
REMARK  134  A    between atoms: _325  and  _326
REMARK  135  A    between atoms: _326  and  _327
REMARK  136  A    between atoms: _336  and  _338
REMARK  137  A    between atoms: _338  and  _339
REMARK  138  A    between atoms: _338  and  _341
REMARK  139  A    between atoms: _341  and  _342
REMARK  140  A    between atoms: _342  and  _343
REMARK  141  A    between atoms: _345  and  _347
REMARK  142  A    between atoms: _347  and  _348
REMARK  143  A    between atoms: _347  and  _350
REMARK  144  A    between atoms: _350  and  _351
REMARK  145  A    between atoms: _361  and  _363
REMARK  146  A    between atoms: _363  and  _364
REMARK  147  A    between atoms: _363  and  _366
REMARK  148  A    between atoms: _366  and  _367
REMARK  149  A    between atoms: _370  and  _372
REMARK  150  A    between atoms: _372  and  _373
REMARK  151  A    between atoms: _372  and  _375
REMARK  152  A    between atoms: _375  and  _376
REMARK  153  A    between atoms: _379  and  _381
REMARK  154  A    between atoms: _381  and  _382
REMARK  155  A    between atoms: _381  and  _384
REMARK  156  A    between atoms: _384  and  _385
REMARK  157  A    between atoms: _388  and  _390
REMARK  158  A    between atoms: _390  and  _391
REMARK  159  A    between atoms: _390  and  _393
REMARK  160  A    between atoms: _393  and  _394
REMARK  161  A    between atoms: _399  and  _400
REMARK  162  A    between atoms: _402  and  _404
REMARK  163  A    between atoms: _404  and  _405
REMARK  164  A    between atoms: _404  and  _407
REMARK  165  A    between atoms: _407  and  _408
REMARK  166  A    between atoms: _408  and  _409
REMARK  167  A    between atoms: _409  and  _410
REMARK  168  A    between atoms: _419  and  _421
REMARK  169  A    between atoms: _421  and  _422
REMARK  170  A    between atoms: _421  and  _424
REMARK  171  A    between atoms: _424  and  _425
REMARK  172  A    between atoms: _431  and  _433
REMARK  173  A    between atoms: _433  and  _434
REMARK  174  A    between atoms: _433  and  _436
REMARK  175  A    between atoms: _436  and  _437
REMARK  176  A    between atoms: _440  and  _442
REMARK  177  A    between atoms: _442  and  _443
REMARK  178  A    between atoms: _442  and  _445
REMARK  179  A    between atoms: _445  and  _446
REMARK  180  A    between atoms: _446  and  _447
REMARK  181  A    between atoms: _447  and  _448
REMARK  182  A    between atoms: _457  and  _459
REMARK  183  A    between atoms: _459  and  _460
REMARK  184  A    between atoms: _459  and  _462
REMARK  185  A    between atoms: _462  and  _463
REMARK  186  A    between atoms: _466  and  _468
REMARK  187  A    between atoms: _468  and  _469
REMARK  188  A    between atoms: _468  and  _471
REMARK  189  A    between atoms: _471  and  _472
REMARK  190  A    between atoms: _475  and  _477
REMARK  191  A    between atoms: _477  and  _478
REMARK  192  A    between atoms: _477  and  _480
REMARK  193  A    between atoms: _480  and  _481
REMARK  194  A    between atoms: _484  and  _486
REMARK  195  A    between atoms: _486  and  _487
REMARK  196  A    between atoms: _486  and  _489
REMARK  197  A    between atoms: _489  and  _490
REMARK  198  A    between atoms: _500  and  _502
REMARK  199  A    between atoms: _502  and  _503
REMARK  200  A    between atoms: _502  and  _505
REMARK  201  A    between atoms: _508  and  _510
REMARK  202  A    between atoms: _510  and  _511
REMARK  203  A    between atoms: _510  and  _513
REMARK  204  A    between atoms: _513  and  _514
REMARK  205  A    between atoms: _516  and  _518
REMARK  206  A    between atoms: _518  and  _519
REMARK  207  A    between atoms: _518  and  _521
REMARK  208  A    between atoms: _524  and  _526
REMARK  209  A    between atoms: _526  and  _527
REMARK  210  A    between atoms: _526  and  _529
REMARK  211  A    between atoms: _529  and  _530
REMARK  212  A    between atoms: _530  and  _531
REMARK  213  A    between atoms: _531  and  _532
REMARK  214  A    between atoms: _541  and  _543
REMARK  215  A    between atoms: _543  and  _544
REMARK  216  A    between atoms: _543  and  _546
REMARK  217  A    between atoms: _546  and  _547
REMARK  218  A    between atoms: _547  and  _548
REMARK  219  A    between atoms: _551  and  _553
REMARK  220  A    between atoms: _553  and  _554
REMARK  221  A    between atoms: _553  and  _556
REMARK  222  A    between atoms: _556  and  _557
REMARK  223  A    between atoms: _557  and  _558
REMARK  224  A    between atoms: _563  and  _565
REMARK  225  A    between atoms: _565  and  _566
REMARK  226  A    between atoms: _565  and  _568
REMARK  227  A    between atoms: _568  and  _569
REMARK  228  A    between atoms: _572  and  _574
REMARK  229  A    between atoms: _574  and  _575
REMARK  230  A    between atoms: _574  and  _577
REMARK  231  A    between atoms: _580  and  _582
REMARK  232  A    between atoms: _582  and  _583
REMARK  233  A    between atoms: _582  and  _585
REMARK  234  A    between atoms: _585  and  _586
REMARK  235  A    between atoms: _588  and  _590
REMARK  236  A    between atoms: _590  and  _591
REMARK  237  A    between atoms: _590  and  _593
REMARK  238  A    between atoms: _596  and  _598
REMARK  239  A    between atoms: _598  and  _599
REMARK  240  A    between atoms: _598  and  _601
REMARK  241  A    between atoms: _601  and  _602
REMARK  242  A    between atoms: _602  and  _603
REMARK  243  A    between atoms: _603  and  _604
REMARK  244  A    between atoms: _613  and  _615
REMARK  245  A    between atoms: _615  and  _616
REMARK  246  A    between atoms: _615  and  _618
REMARK  247  A    between atoms: _618  and  _619
REMARK  248  A    between atoms: _629  and  _631
REMARK  249  A    between atoms: _631  and  _632
REMARK  250  A    between atoms: _631  and  _634
REMARK  251  A    between atoms: _634  and  _635
REMARK  252  A    between atoms: _640  and  _641
REMARK  253  A    between atoms: _643  and  _645
REMARK  254  A    between atoms: _645  and  _646
REMARK  255  A    between atoms: _645  and  _648
REMARK  256  A    between atoms: _648  and  _649
REMARK  257  A    between atoms: _649  and  _650
REMARK  258  A    between atoms: _650  and  _651
REMARK  259  A    between atoms: _661  and  _662
REMARK  260  A    between atoms: _667  and  _669
REMARK  261  A    between atoms: _669  and  _670
REMARK  262  A    between atoms: _672  and  _674
REMARK  263  A    between atoms: _674  and  _675
REMARK  264  A    between atoms: _678  and  _679
REMARK  265  A    between atoms: _684  and  _686
REMARK  266  A    between atoms: _686  and  _687
REMARK  267  A    between atoms: _686  and  _689
REMARK  268  A    between atoms: _689  and  _690
REMARK  269  A    between atoms: _693  and  _695
REMARK  270  A    between atoms: _695  and  _696
REMARK  271  A    between atoms: _695  and  _698
REMARK  272  A    between atoms: _698  and  _699
REMARK  273  A    between atoms: _702  and  _704
REMARK  274  A    between atoms: _704  and  _705
REMARK  275  A    between atoms: _708  and  _710
REMARK  276  A    between atoms: _710  and  _711
REMARK  277  A    between atoms: _710  and  _713
REMARK  278  A    between atoms: _713  and  _714
REMARK  279  A    between atoms: _714  and  _715
REMARK  280  A    between atoms: _720  and  _722
REMARK  281  A    between atoms: _722  and  _723
REMARK  282  A    between atoms: _722  and  _725
REMARK                            x       y       z     vdW  Elec       q    Type
REMARK                         _______ _______ _______ _____ _____    ______ ____
ROOT
ATOM      1  O   HOH     1      -1.587  43.092  11.262  0.00  0.00    +0.000 OA
ENDROOT
TORSDOF 0
REMARK  Name = ../refined-set-2016/4w97/4w97_pocket.pdb
REMARK  282 active torsions:
REMARK  status: ('A' for Active; 'I' for Inactive)
REMARK    1  A    between atoms: _1  and  _3
REMARK    2  A    between atoms: _3  and  _4
REMARK    3  A    between atoms: _3  and  _6
REMARK    4  A    between atoms: _6  and  _7
REMARK    5  A    between atoms: _10  and  _12
REMARK    6  A    between atoms: _12  and  _13
REMARK    7  A    between atoms: _12  and  _15
REMARK    8  A    between atoms: _15  and  _16
REMARK    9  A    between atoms: _22  and  _24
REMARK   10  A    between atoms: _24  and  _25
REMARK   11  A    between atoms: _24  and  _27
REMARK   12  A    between atoms: _27  and  _28
REMARK   13  A    between atoms: _31  and  _33
REMARK   14  A    between atoms: _33  and  _34
REMARK   15  A    between atoms: _33  and  _36
REMARK   16  A    between atoms: _36  and  _37
REMARK   17  A    between atoms: _40  and  _42
REMARK   18  A    between atoms: _42  and  _43
REMARK   19  A    between atoms: _42  and  _45
REMARK   20  A    between atoms: _45  and  _46
REMARK   21  A    between atoms: _52  and  _54
REMARK   22  A    between atoms: _54  and  _55
REMARK   23  A    between atoms: _54  and  _57
REMARK   24  A    between atoms: _57  and  _58
REMARK   25  A    between atoms: _63  and  _64
REMARK   26  A    between atoms: _66  and  _68
REMARK   27  A    between atoms: _68  and  _69
REMARK   28  A    between atoms: _68  and  _71
REMARK   29  A    between atoms: _71  and  _72
REMARK   30  A    between atoms: _74  and  _76
REMARK   31  A    between atoms: _76  and  _77
REMARK   32  A    between atoms: _80  and  _82
REMARK   33  A    between atoms: _82  and  _83
REMARK   34  A    between atoms: _82  and  _85
REMARK   35  A    between atoms: _85  and  _86
REMARK   36  A    between atoms: _89  and  _91
REMARK   37  A    between atoms: _91  and  _92
REMARK   38  A    between atoms: _91  and  _94
REMARK   39  A    between atoms: _94  and  _95
REMARK   40  A    between atoms: _95  and  _96
REMARK   41  A    between atoms: _101  and  _103
REMARK   42  A    between atoms: _103  and  _104
REMARK   43  A    between atoms: _103  and  _106
REMARK   44  A    between atoms: _109  and  _111
REMARK   45  A    between atoms: _111  and  _112
REMARK   46  A    between atoms: _111  and  _114
REMARK   47  A    between atoms: _117  and  _119
REMARK   48  A    between atoms: _119  and  _120
REMARK   49  A    between atoms: _119  and  _122
REMARK   50  A    between atoms: _122  and  _123
REMARK   51  A    between atoms: _126  and  _128
REMARK   52  A    between atoms: _128  and  _129
REMARK   53  A    between atoms: _128  and  _131
REMARK   54  A    between atoms: _131  and  _132
REMARK   55  A    between atoms: _137  and  _138
REMARK   56  A    between atoms: _140  and  _142
REMARK   57  A    between atoms: _142  and  _143
REMARK   58  A    between atoms: _142  and  _145
REMARK   59  A    between atoms: _145  and  _146
REMARK   60  A    between atoms: _146  and  _147
REMARK   61  A    between atoms: _152  and  _154
REMARK   62  A    between atoms: _154  and  _155
REMARK   63  A    between atoms: _154  and  _157
REMARK   64  A    between atoms: _157  and  _158
REMARK   65  A    between atoms: _161  and  _163
REMARK   66  A    between atoms: _163  and  _164
REMARK   67  A    between atoms: _163  and  _166
REMARK   68  A    between atoms: _166  and  _167
REMARK   69  A    between atoms: _167  and  _168
REMARK   70  A    between atoms: _171  and  _173
REMARK   71  A    between atoms: _173  and  _174
REMARK   72  A    between atoms: _177  and  _179
REMARK   73  A    between atoms: _179  and  _180
REMARK   74  A    between atoms: _179  and  _182
REMARK   75  A    between atoms: _182  and  _183
REMARK   76  A    between atoms: _183  and  _184
REMARK   77  A    between atoms: _189  and  _191
REMARK   78  A    between atoms: _191  and  _192
REMARK   79  A    between atoms: _191  and  _194
REMARK   80  A    between atoms: _194  and  _195
REMARK   81  A    between atoms: _195  and  _196
REMARK   82  A    between atoms: _196  and  _197
REMARK   83  A    between atoms: _206  and  _208
REMARK   84  A    between atoms: _208  and  _209
REMARK   85  A    between atoms: _212  and  _214
REMARK   86  A    between atoms: _214  and  _215
REMARK   87  A    between atoms: _214  and  _217
REMARK   88  A    between atoms: _217  and  _218
REMARK   89  A    between atoms: _223  and  _224
REMARK   90  A    between atoms: _226  and  _228
REMARK   91  A    between atoms: _228  and  _229
REMARK   92  A    between atoms: _228  and  _231
REMARK   93  A    between atoms: _231  and  _232
REMARK   94  A    between atoms: _235  and  _237
REMARK   95  A    between atoms: _237  and  _238
REMARK   96  A    between atoms: _237  and  _240
REMARK   97  A    between atoms: _240  and  _241
REMARK   98  A    between atoms: _241  and  _242
REMARK   99  A    between atoms: _245  and  _247
REMARK  100  A    between atoms: _247  and  _248
REMARK  101  A    between atoms: _247  and  _250
REMARK  102  A    between atoms: _250  and  _251
REMARK  103  A    between atoms: _254  and  _256
REMARK  104  A    between atoms: _256  and  _257
REMARK  105  A    between atoms: _256  and  _259
REMARK  106  A    between atoms: _259  and  _260
REMARK  107  A    between atoms: _260  and  _261
REMARK  108  A    between atoms: _261  and  _262
REMARK  109  A    between atoms: _271  and  _273
REMARK  110  A    between atoms: _273  and  _274
REMARK  111  A    between atoms: _273  and  _276
REMARK  112  A    between atoms: _276  and  _277
REMARK  113  A    between atoms: _282  and  _284
REMARK  114  A    between atoms: _284  and  _285
REMARK  115  A    between atoms: _284  and  _287
REMARK  116  A    between atoms: _287  and  _288
REMARK  117  A    between atoms: _288  and  _289
REMARK  118  A    between atoms: _289  and  _290
REMARK  119  A    between atoms: _290  and  _291
REMARK  120  A    between atoms: _295  and  _297
REMARK  121  A    between atoms: _297  and  _298
REMARK  122  A    between atoms: _297  and  _300
REMARK  123  A    between atoms: _300  and  _301
REMARK  124  A    between atoms: _301  and  _302
REMARK  125  A    between atoms: _307  and  _309
REMARK  126  A    between atoms: _309  and  _310
REMARK  127  A    between atoms: _309  and  _312
REMARK  128  A    between atoms: _312  and  _313
REMARK  129  A    between atoms: _313  and  _314
REMARK  130  A    between atoms: _319  and  _321
REMARK  131  A    between atoms: _321  and  _322
REMARK  132  A    between atoms: _321  and  _324
REMARK  133  A    between atoms: _324  and  _325
REMARK  134  A    between atoms: _325  and  _326
REMARK  135  A    between atoms: _326  and  _327
REMARK  136  A    between atoms: _336  and  _338
REMARK  137  A    between atoms: _338  and  _339
REMARK  138  A    between atoms: _338  and  _341
REMARK  139  A    between atoms: _341  and  _342
REMARK  140  A    between atoms: _342  and  _343
REMARK  141  A    between atoms: _345  and  _347
REMARK  142  A    between atoms: _347  and  _348
REMARK  143  A    between atoms: _347  and  _350
REMARK  144  A    between atoms: _350  and  _351
REMARK  145  A    between atoms: _361  and  _363
REMARK  146  A    between atoms: _363  and  _364
REMARK  147  A    between atoms: _363  and  _366
REMARK  148  A    between atoms: _366  and  _367
REMARK  149  A    between atoms: _370  and  _372
REMARK  150  A    between atoms: _372  and  _373
REMARK  151  A    between atoms: _372  and  _375
REMARK  152  A    between atoms: _375  and  _376
REMARK  153  A    between atoms: _379  and  _381
REMARK  154  A    between atoms: _381  and  _382
REMARK  155  A    between atoms: _381  and  _384
REMARK  156  A    between atoms: _384  and  _385
REMARK  157  A    between atoms: _388  and  _390
REMARK  158  A    between atoms: _390  and  _391
REMARK  159  A    between atoms: _390  and  _393
REMARK  160  A    between atoms: _393  and  _394
REMARK  161  A    between atoms: _399  and  _400
REMARK  162  A    between atoms: _402  and  _404
REMARK  163  A    between atoms: _404  and  _405
REMARK  164  A    between atoms: _404  and  _407
REMARK  165  A    between atoms: _407  and  _408
REMARK  166  A    between atoms: _408  and  _409
REMARK  167  A    between atoms: _409  and  _410
REMARK  168  A    between atoms: _419  and  _421
REMARK  169  A    between atoms: _421  and  _422
REMARK  170  A    between atoms: _421  and  _424
REMARK  171  A    between atoms: _424  and  _425
REMARK  172  A    between atoms: _431  and  _433
REMARK  173  A    between atoms: _433  and  _434
REMARK  174  A    between atoms: _433  and  _436
REMARK  175  A    between atoms: _436  and  _437
REMARK  176  A    between atoms: _440  and  _442
REMARK  177  A    between atoms: _442  and  _443
REMARK  178  A    between atoms: _442  and  _445
REMARK  179  A    between atoms: _445  and  _446
REMARK  180  A    between atoms: _446  and  _447
REMARK  181  A    between atoms: _447  and  _448
REMARK  182  A    between atoms: _457  and  _459
REMARK  183  A    between atoms: _459  and  _460
REMARK  184  A    between atoms: _459  and  _462
REMARK  185  A    between atoms: _462  and  _463
REMARK  186  A    between atoms: _466  and  _468
REMARK  187  A    between atoms: _468  and  _469
REMARK  188  A    between atoms: _468  and  _471
REMARK  189  A    between atoms: _471  and  _472
REMARK  190  A    between atoms: _475  and  _477
REMARK  191  A    between atoms: _477  and  _478
REMARK  192  A    between atoms: _477  and  _480
REMARK  193  A    between atoms: _480  and  _481
REMARK  194  A    between atoms: _484  and  _486
REMARK  195  A    between atoms: _486  and  _487
REMARK  196  A    between atoms: _486  and  _489
REMARK  197  A    between atoms: _489  and  _490
REMARK  198  A    between atoms: _500  and  _502
REMARK  199  A    between atoms: _502  and  _503
REMARK  200  A    between atoms: _502  and  _505
REMARK  201  A    between atoms: _508  and  _510
REMARK  202  A    between atoms: _510  and  _511
REMARK  203  A    between atoms: _510  and  _513
REMARK  204  A    between atoms: _513  and  _514
REMARK  205  A    between atoms: _516  and  _518
REMARK  206  A    between atoms: _518  and  _519
REMARK  207  A    between atoms: _518  and  _521
REMARK  208  A    between atoms: _524  and  _526
REMARK  209  A    between atoms: _526  and  _527
REMARK  210  A    between atoms: _526  and  _529
REMARK  211  A    between atoms: _529  and  _530
REMARK  212  A    between atoms: _530  and  _531
REMARK  213  A    between atoms: _531  and  _532
REMARK  214  A    between atoms: _541  and  _543
REMARK  215  A    between atoms: _543  and  _544
REMARK  216  A    between atoms: _543  and  _546
REMARK  217  A    between atoms: _546  and  _547
REMARK  218  A    between atoms: _547  and  _548
REMARK  219  A    between atoms: _551  and  _553
REMARK  220  A    between atoms: _553  and  _554
REMARK  221  A    between atoms: _553  and  _556
REMARK  222  A    between atoms: _556  and  _557
REMARK  223  A    between atoms: _557  and  _558
REMARK  224  A    between atoms: _563  and  _565
REMARK  225  A    between atoms: _565  and  _566
REMARK  226  A    between atoms: _565  and  _568
REMARK  227  A    between atoms: _568  and  _569
REMARK  228  A    between atoms: _572  and  _574
REMARK  229  A    between atoms: _574  and  _575
REMARK  230  A    between atoms: _574  and  _577
REMARK  231  A    between atoms: _580  and  _582
REMARK  232  A    between atoms: _582  and  _583
REMARK  233  A    between atoms: _582  and  _585
REMARK  234  A    between atoms: _585  and  _586
REMARK  235  A    between atoms: _588  and  _590
REMARK  236  A    between atoms: _590  and  _591
REMARK  237  A    between atoms: _590  and  _593
REMARK  238  A    between atoms: _596  and  _598
REMARK  239  A    between atoms: _598  and  _599
REMARK  240  A    between atoms: _598  and  _601
REMARK  241  A    between atoms: _601  and  _602
REMARK  242  A    between atoms: _602  and  _603
REMARK  243  A    between atoms: _603  and  _604
REMARK  244  A    between atoms: _613  and  _615
REMARK  245  A    between atoms: _615  and  _616
REMARK  246  A    between atoms: _615  and  _618
REMARK  247  A    between atoms: _618  and  _619
REMARK  248  A    between atoms: _629  and  _631
REMARK  249  A    between atoms: _631  and  _632
REMARK  250  A    between atoms: _631  and  _634
REMARK  251  A    between atoms: _634  and  _635
REMARK  252  A    between atoms: _640  and  _641
REMARK  253  A    between atoms: _643  and  _645
REMARK  254  A    between atoms: _645  and  _646
REMARK  255  A    between atoms: _645  and  _648
REMARK  256  A    between atoms: _648  and  _649
REMARK  257  A    between atoms: _649  and  _650
REMARK  258  A    between atoms: _650  and  _651
REMARK  259  A    between atoms: _661  and  _662
REMARK  260  A    between atoms: _667  and  _669
REMARK  261  A    between atoms: _669  and  _670
REMARK  262  A    between atoms: _672  and  _674
REMARK  263  A    between atoms: _674  and  _675
REMARK  264  A    between atoms: _678  and  _679
REMARK  265  A    between atoms: _684  and  _686
REMARK  266  A    between atoms: _686  and  _687
REMARK  267  A    between atoms: _686  and  _689
REMARK  268  A    between atoms: _689  and  _690
REMARK  269  A    between atoms: _693  and  _695
REMARK  270  A    between atoms: _695  and  _696
REMARK  271  A    between atoms: _695  and  _698
REMARK  272  A    between atoms: _698  and  _699
REMARK  273  A    between atoms: _702  and  _704
REMARK  274  A    between atoms: _704  and  _705
REMARK  275  A    between atoms: _708  and  _710
REMARK  276  A    between atoms: _710  and  _711
REMARK  277  A    between atoms: _710  and  _713
REMARK  278  A    between atoms: _713  and  _714
REMARK  279  A    between atoms: _714  and  _715
REMARK  280  A    between atoms: _720  and  _722
REMARK  281  A    between atoms: _722  and  _723
REMARK  282  A    between atoms: _722  and  _725
REMARK                            x       y       z     vdW  Elec       q    Type
REMARK                         _______ _______ _______ _____ _____    ______ ____
ROOT
ATOM      1  O   HOH     1      -2.543  40.960  14.952  0.00  0.00    +0.000 OA
ENDROOT
TORSDOF 0
REMARK  Name = ../refined-set-2016/4w97/4w97_pocket.pdb
REMARK  282 active torsions:
REMARK  status: ('A' for Active; 'I' for Inactive)
REMARK    1  A    between atoms: _1  and  _3
REMARK    2  A    between atoms: _3  and  _4
REMARK    3  A    between atoms: _3  and  _6
REMARK    4  A    between atoms: _6  and  _7
REMARK    5  A    between atoms: _10  and  _12
REMARK    6  A    between atoms: _12  and  _13
REMARK    7  A    between atoms: _12  and  _15
REMARK    8  A    between atoms: _15  and  _16
REMARK    9  A    between atoms: _22  and  _24
REMARK   10  A    between atoms: _24  and  _25
REMARK   11  A    between atoms: _24  and  _27
REMARK   12  A    between atoms: _27  and  _28
REMARK   13  A    between atoms: _31  and  _33
REMARK   14  A    between atoms: _33  and  _34
REMARK   15  A    between atoms: _33  and  _36
REMARK   16  A    between atoms: _36  and  _37
REMARK   17  A    between atoms: _40  and  _42
REMARK   18  A    between atoms: _42  and  _43
REMARK   19  A    between atoms: _42  and  _45
REMARK   20  A    between atoms: _45  and  _46
REMARK   21  A    between atoms: _52  and  _54
REMARK   22  A    between atoms: _54  and  _55
REMARK   23  A    between atoms: _54  and  _57
REMARK   24  A    between atoms: _57  and  _58
REMARK   25  A    between atoms: _63  and  _64
REMARK   26  A    between atoms: _66  and  _68
REMARK   27  A    between atoms: _68  and  _69
REMARK   28  A    between atoms: _68  and  _71
REMARK   29  A    between atoms: _71  and  _72
REMARK   30  A    between atoms: _74  and  _76
REMARK   31  A    between atoms: _76  and  _77
REMARK   32  A    between atoms: _80  and  _82
REMARK   33  A    between atoms: _82  and  _83
REMARK   34  A    between atoms: _82  and  _85
REMARK   35  A    between atoms: _85  and  _86
REMARK   36  A    between atoms: _89  and  _91
REMARK   37  A    between atoms: _91  and  _92
REMARK   38  A    between atoms: _91  and  _94
REMARK   39  A    between atoms: _94  and  _95
REMARK   40  A    between atoms: _95  and  _96
REMARK   41  A    between atoms: _101  and  _103
REMARK   42  A    between atoms: _103  and  _104
REMARK   43  A    between atoms: _103  and  _106
REMARK   44  A    between atoms: _109  and  _111
REMARK   45  A    between atoms: _111  and  _112
REMARK   46  A    between atoms: _111  and  _114
REMARK   47  A    between atoms: _117  and  _119
REMARK   48  A    between atoms: _119  and  _120
REMARK   49  A    between atoms: _119  and  _122
REMARK   50  A    between atoms: _122  and  _123
REMARK   51  A    between atoms: _126  and  _128
REMARK   52  A    between atoms: _128  and  _129
REMARK   53  A    between atoms: _128  and  _131
REMARK   54  A    between atoms: _131  and  _132
REMARK   55  A    between atoms: _137  and  _138
REMARK   56  A    between atoms: _140  and  _142
REMARK   57  A    between atoms: _142  and  _143
REMARK   58  A    between atoms: _142  and  _145
REMARK   59  A    between atoms: _145  and  _146
REMARK   60  A    between atoms: _146  and  _147
REMARK   61  A    between atoms: _152  and  _154
REMARK   62  A    between atoms: _154  and  _155
REMARK   63  A    between atoms: _154  and  _157
REMARK   64  A    between atoms: _157  and  _158
REMARK   65  A    between atoms: _161  and  _163
REMARK   66  A    between atoms: _163  and  _164
REMARK   67  A    between atoms: _163  and  _166
REMARK   68  A    between atoms: _166  and  _167
REMARK   69  A    between atoms: _167  and  _168
REMARK   70  A    between atoms: _171  and  _173
REMARK   71  A    between atoms: _173  and  _174
REMARK   72  A    between atoms: _177  and  _179
REMARK   73  A    between atoms: _179  and  _180
REMARK   74  A    between atoms: _179  and  _182
REMARK   75  A    between atoms: _182  and  _183
REMARK   76  A    between atoms: _183  and  _184
REMARK   77  A    between atoms: _189  and  _191
REMARK   78  A    between atoms: _191  and  _192
REMARK   79  A    between atoms: _191  and  _194
REMARK   80  A    between atoms: _194  and  _195
REMARK   81  A    between atoms: _195  and  _196
REMARK   82  A    between atoms: _196  and  _197
REMARK   83  A    between atoms: _206  and  _208
REMARK   84  A    between atoms: _208  and  _209
REMARK   85  A    between atoms: _212  and  _214
REMARK   86  A    between atoms: _214  and  _215
REMARK   87  A    between atoms: _214  and  _217
REMARK   88  A    between atoms: _217  and  _218
REMARK   89  A    between atoms: _223  and  _224
REMARK   90  A    between atoms: _226  and  _228
REMARK   91  A    between atoms: _228  and  _229
REMARK   92  A    between atoms: _228  and  _231
REMARK   93  A    between atoms: _231  and  _232
REMARK   94  A    between atoms: _235  and  _237
REMARK   95  A    between atoms: _237  and  _238
REMARK   96  A    between atoms: _237  and  _240
REMARK   97  A    between atoms: _240  and  _241
REMARK   98  A    between atoms: _241  and  _242
REMARK   99  A    between atoms: _245  and  _247
REMARK  100  A    between atoms: _247  and  _248
REMARK  101  A    between atoms: _247  and  _250
REMARK  102  A    between atoms: _250  and  _251
REMARK  103  A    between atoms: _254  and  _256
REMARK  104  A    between atoms: _256  and  _257
REMARK  105  A    between atoms: _256  and  _259
REMARK  106  A    between atoms: _259  and  _260
REMARK  107  A    between atoms: _260  and  _261
REMARK  108  A    between atoms: _261  and  _262
REMARK  109  A    between atoms: _271  and  _273
REMARK  110  A    between atoms: _273  and  _274
REMARK  111  A    between atoms: _273  and  _276
REMARK  112  A    between atoms: _276  and  _277
REMARK  113  A    between atoms: _282  and  _284
REMARK  114  A    between atoms: _284  and  _285
REMARK  115  A    between atoms: _284  and  _287
REMARK  116  A    between atoms: _287  and  _288
REMARK  117  A    between atoms: _288  and  _289
REMARK  118  A    between atoms: _289  and  _290
REMARK  119  A    between atoms: _290  and  _291
REMARK  120  A    between atoms: _295  and  _297
REMARK  121  A    between atoms: _297  and  _298
REMARK  122  A    between atoms: _297  and  _300
REMARK  123  A    between atoms: _300  and  _301
REMARK  124  A    between atoms: _301  and  _302
REMARK  125  A    between atoms: _307  and  _309
REMARK  126  A    between atoms: _309  and  _310
REMARK  127  A    between atoms: _309  and  _312
REMARK  128  A    between atoms: _312  and  _313
REMARK  129  A    between atoms: _313  and  _314
REMARK  130  A    between atoms: _319  and  _321
REMARK  131  A    between atoms: _321  and  _322
REMARK  132  A    between atoms: _321  and  _324
REMARK  133  A    between atoms: _324  and  _325
REMARK  134  A    between atoms: _325  and  _326
REMARK  135  A    between atoms: _326  and  _327
REMARK  136  A    between atoms: _336  and  _338
REMARK  137  A    between atoms: _338  and  _339
REMARK  138  A    between atoms: _338  and  _341
REMARK  139  A    between atoms: _341  and  _342
REMARK  140  A    between atoms: _342  and  _343
REMARK  141  A    between atoms: _345  and  _347
REMARK  142  A    between atoms: _347  and  _348
REMARK  143  A    between atoms: _347  and  _350
REMARK  144  A    between atoms: _350  and  _351
REMARK  145  A    between atoms: _361  and  _363
REMARK  146  A    between atoms: _363  and  _364
REMARK  147  A    between atoms: _363  and  _366
REMARK  148  A    between atoms: _366  and  _367
REMARK  149  A    between atoms: _370  and  _372
REMARK  150  A    between atoms: _372  and  _373
REMARK  151  A    between atoms: _372  and  _375
REMARK  152  A    between atoms: _375  and  _376
REMARK  153  A    between atoms: _379  and  _381
REMARK  154  A    between atoms: _381  and  _382
REMARK  155  A    between atoms: _381  and  _384
REMARK  156  A    between atoms: _384  and  _385
REMARK  157  A    between atoms: _388  and  _390
REMARK  158  A    between atoms: _390  and  _391
REMARK  159  A    between atoms: _390  and  _393
REMARK  160  A    between atoms: _393  and  _394
REMARK  161  A    between atoms: _399  and  _400
REMARK  162  A    between atoms: _402  and  _404
REMARK  163  A    between atoms: _404  and  _405
REMARK  164  A    between atoms: _404  and  _407
REMARK  165  A    between atoms: _407  and  _408
REMARK  166  A    between atoms: _408  and  _409
REMARK  167  A    between atoms: _409  and  _410
REMARK  168  A    between atoms: _419  and  _421
REMARK  169  A    between atoms: _421  and  _422
REMARK  170  A    between atoms: _421  and  _424
REMARK  171  A    between atoms: _424  and  _425
REMARK  172  A    between atoms: _431  and  _433
REMARK  173  A    between atoms: _433  and  _434
REMARK  174  A    between atoms: _433  and  _436
REMARK  175  A    between atoms: _436  and  _437
REMARK  176  A    between atoms: _440  and  _442
REMARK  177  A    between atoms: _442  and  _443
REMARK  178  A    between atoms: _442  and  _445
REMARK  179  A    between atoms: _445  and  _446
REMARK  180  A    between atoms: _446  and  _447
REMARK  181  A    between atoms: _447  and  _448
REMARK  182  A    between atoms: _457  and  _459
REMARK  183  A    between atoms: _459  and  _460
REMARK  184  A    between atoms: _459  and  _462
REMARK  185  A    between atoms: _462  and  _463
REMARK  186  A    between atoms: _466  and  _468
REMARK  187  A    between atoms: _468  and  _469
REMARK  188  A    between atoms: _468  and  _471
REMARK  189  A    between atoms: _471  and  _472
REMARK  190  A    between atoms: _475  and  _477
REMARK  191  A    between atoms: _477  and  _478
REMARK  192  A    between atoms: _477  and  _480
REMARK  193  A    between atoms: _480  and  _481
REMARK  194  A    between atoms: _484  and  _486
REMARK  195  A    between atoms: _486  and  _487
REMARK  196  A    between atoms: _486  and  _489
REMARK  197  A    between atoms: _489  and  _490
REMARK  198  A    between atoms: _500  and  _502
REMARK  199  A    between atoms: _502  and  _503
REMARK  200  A    between atoms: _502  and  _505
REMARK  201  A    between atoms: _508  and  _510
REMARK  202  A    between atoms: _510  and  _511
REMARK  203  A    between atoms: _510  and  _513
REMARK  204  A    between atoms: _513  and  _514
REMARK  205  A    between atoms: _516  and  _518
REMARK  206  A    between atoms: _518  and  _519
REMARK  207  A    between atoms: _518  and  _521
REMARK  208  A    between atoms: _524  and  _526
REMARK  209  A    between atoms: _526  and  _527
REMARK  210  A    between atoms: _526  and  _529
REMARK  211  A    between atoms: _529  and  _530
REMARK  212  A    between atoms: _530  and  _531
REMARK  213  A    between atoms: _531  and  _532
REMARK  214  A    between atoms: _541  and  _543
REMARK  215  A    between atoms: _543  and  _544
REMARK  216  A    between atoms: _543  and  _546
REMARK  217  A    between atoms: _546  and  _547
REMARK  218  A    between atoms: _547  and  _548
REMARK  219  A    between atoms: _551  and  _553
REMARK  220  A    between atoms: _553  and  _554
REMARK  221  A    between atoms: _553  and  _556
REMARK  222  A    between atoms: _556  and  _557
REMARK  223  A    between atoms: _557  and  _558
REMARK  224  A    between atoms: _563  and  _565
REMARK  225  A    between atoms: _565  and  _566
REMARK  226  A    between atoms: _565  and  _568
REMARK  227  A    between atoms: _568  and  _569
REMARK  228  A    between atoms: _572  and  _574
REMARK  229  A    between atoms: _574  and  _575
REMARK  230  A    between atoms: _574  and  _577
REMARK  231  A    between atoms: _580  and  _582
REMARK  232  A    between atoms: _582  and  _583
REMARK  233  A    between atoms: _582  and  _585
REMARK  234  A    between atoms: _585  and  _586
REMARK  235  A    between atoms: _588  and  _590
REMARK  236  A    between atoms: _590  and  _591
REMARK  237  A    between atoms: _590  and  _593
REMARK  238  A    between atoms: _596  and  _598
REMARK  239  A    between atoms: _598  and  _599
REMARK  240  A    between atoms: _598  and  _601
REMARK  241  A    between atoms: _601  and  _602
REMARK  242  A    between atoms: _602  and  _603
REMARK  243  A    between atoms: _603  and  _604
REMARK  244  A    between atoms: _613  and  _615
REMARK  245  A    between atoms: _615  and  _616
REMARK  246  A    between atoms: _615  and  _618
REMARK  247  A    between atoms: _618  and  _619
REMARK  248  A    between atoms: _629  and  _631
REMARK  249  A    between atoms: _631  and  _632
REMARK  250  A    between atoms: _631  and  _634
REMARK  251  A    between atoms: _634  and  _635
REMARK  252  A    between atoms: _640  and  _641
REMARK  253  A    between atoms: _643  and  _645
REMARK  254  A    between atoms: _645  and  _646
REMARK  255  A    between atoms: _645  and  _648
REMARK  256  A    between atoms: _648  and  _649
REMARK  257  A    between atoms: _649  and  _650
REMARK  258  A    between atoms: _650  and  _651
REMARK  259  A    between atoms: _661  and  _662
REMARK  260  A    between atoms: _667  and  _669
REMARK  261  A    between atoms: _669  and  _670
REMARK  262  A    between atoms: _672  and  _674
REMARK  263  A    between atoms: _674  and  _675
REMARK  264  A    between atoms: _678  and  _679
REMARK  265  A    between atoms: _684  and  _686
REMARK  266  A    between atoms: _686  and  _687
REMARK  267  A    between atoms: _686  and  _689
REMARK  268  A    between atoms: _689  and  _690
REMARK  269  A    between atoms: _693  and  _695
REMARK  270  A    between atoms: _695  and  _696
REMARK  271  A    between atoms: _695  and  _698
REMARK  272  A    between atoms: _698  and  _699
REMARK  273  A    between atoms: _702  and  _704
REMARK  274  A    between atoms: _704  and  _705
REMARK  275  A    between atoms: _708  and  _710
REMARK  276  A    between atoms: _710  and  _711
REMARK  277  A    between atoms: _710  and  _713
REMARK  278  A    between atoms: _713  and  _714
REMARK  279  A    between atoms: _714  and  _715
REMARK  280  A    between atoms: _720  and  _722
REMARK  281  A    between atoms: _722  and  _723
REMARK  282  A    between atoms: _722  and  _725
REMARK                            x       y       z     vdW  Elec       q    Type
REMARK                         _______ _______ _______ _____ _____    ______ ____
ROOT
ATOM      1  O   HOH     1       0.000  41.239  13.948  0.00  0.00    +0.000 OA
ENDROOT
TORSDOF 0
REMARK  Name = ../refined-set-2016/4w97/4w97_pocket.pdb
REMARK  282 active torsions:
REMARK  status: ('A' for Active; 'I' for Inactive)
REMARK    1  A    between atoms: _1  and  _3
REMARK    2  A    between atoms: _3  and  _4
REMARK    3  A    between atoms: _3  and  _6
REMARK    4  A    between atoms: _6  and  _7
REMARK    5  A    between atoms: _10  and  _12
REMARK    6  A    between atoms: _12  and  _13
REMARK    7  A    between atoms: _12  and  _15
REMARK    8  A    between atoms: _15  and  _16
REMARK    9  A    between atoms: _22  and  _24
REMARK   10  A    between atoms: _24  and  _25
REMARK   11  A    between atoms: _24  and  _27
REMARK   12  A    between atoms: _27  and  _28
REMARK   13  A    between atoms: _31  and  _33
REMARK   14  A    between atoms: _33  and  _34
REMARK   15  A    between atoms: _33  and  _36
REMARK   16  A    between atoms: _36  and  _37
REMARK   17  A    between atoms: _40  and  _42
REMARK   18  A    between atoms: _42  and  _43
REMARK   19  A    between atoms: _42  and  _45
REMARK   20  A    between atoms: _45  and  _46
REMARK   21  A    between atoms: _52  and  _54
REMARK   22  A    between atoms: _54  and  _55
REMARK   23  A    between atoms: _54  and  _57
REMARK   24  A    between atoms: _57  and  _58
REMARK   25  A    between atoms: _63  and  _64
REMARK   26  A    between atoms: _66  and  _68
REMARK   27  A    between atoms: _68  and  _69
REMARK   28  A    between atoms: _68  and  _71
REMARK   29  A    between atoms: _71  and  _72
REMARK   30  A    between atoms: _74  and  _76
REMARK   31  A    between atoms: _76  and  _77
REMARK   32  A    between atoms: _80  and  _82
REMARK   33  A    between atoms: _82  and  _83
REMARK   34  A    between atoms: _82  and  _85
REMARK   35  A    between atoms: _85  and  _86
REMARK   36  A    between atoms: _89  and  _91
REMARK   37  A    between atoms: _91  and  _92
REMARK   38  A    between atoms: _91  and  _94
REMARK   39  A    between atoms: _94  and  _95
REMARK   40  A    between atoms: _95  and  _96
REMARK   41  A    between atoms: _101  and  _103
REMARK   42  A    between atoms: _103  and  _104
REMARK   43  A    between atoms: _103  and  _106
REMARK   44  A    between atoms: _109  and  _111
REMARK   45  A    between atoms: _111  and  _112
REMARK   46  A    between atoms: _111  and  _114
REMARK   47  A    between atoms: _117  and  _119
REMARK   48  A    between atoms: _119  and  _120
REMARK   49  A    between atoms: _119  and  _122
REMARK   50  A    between atoms: _122  and  _123
REMARK   51  A    between atoms: _126  and  _128
REMARK   52  A    between atoms: _128  and  _129
REMARK   53  A    between atoms: _128  and  _131
REMARK   54  A    between atoms: _131  and  _132
REMARK   55  A    between atoms: _137  and  _138
REMARK   56  A    between atoms: _140  and  _142
REMARK   57  A    between atoms: _142  and  _143
REMARK   58  A    between atoms: _142  and  _145
REMARK   59  A    between atoms: _145  and  _146
REMARK   60  A    between atoms: _146  and  _147
REMARK   61  A    between atoms: _152  and  _154
REMARK   62  A    between atoms: _154  and  _155
REMARK   63  A    between atoms: _154  and  _157
REMARK   64  A    between atoms: _157  and  _158
REMARK   65  A    between atoms: _161  and  _163
REMARK   66  A    between atoms: _163  and  _164
REMARK   67  A    between atoms: _163  and  _166
REMARK   68  A    between atoms: _166  and  _167
REMARK   69  A    between atoms: _167  and  _168
REMARK   70  A    between atoms: _171  and  _173
REMARK   71  A    between atoms: _173  and  _174
REMARK   72  A    between atoms: _177  and  _179
REMARK   73  A    between atoms: _179  and  _180
REMARK   74  A    between atoms: _179  and  _182
REMARK   75  A    between atoms: _182  and  _183
REMARK   76  A    between atoms: _183  and  _184
REMARK   77  A    between atoms: _189  and  _191
REMARK   78  A    between atoms: _191  and  _192
REMARK   79  A    between atoms: _191  and  _194
REMARK   80  A    between atoms: _194  and  _195
REMARK   81  A    between atoms: _195  and  _196
REMARK   82  A    between atoms: _196  and  _197
REMARK   83  A    between atoms: _206  and  _208
REMARK   84  A    between atoms: _208  and  _209
REMARK   85  A    between atoms: _212  and  _214
REMARK   86  A    between atoms: _214  and  _215
REMARK   87  A    between atoms: _214  and  _217
REMARK   88  A    between atoms: _217  and  _218
REMARK   89  A    between atoms: _223  and  _224
REMARK   90  A    between atoms: _226  and  _228
REMARK   91  A    between atoms: _228  and  _229
REMARK   92  A    between atoms: _228  and  _231
REMARK   93  A    between atoms: _231  and  _232
REMARK   94  A    between atoms: _235  and  _237
REMARK   95  A    between atoms: _237  and  _238
REMARK   96  A    between atoms: _237  and  _240
REMARK   97  A    between atoms: _240  and  _241
REMARK   98  A    between atoms: _241  and  _242
REMARK   99  A    between atoms: _245  and  _247
REMARK  100  A    between atoms: _247  and  _248
REMARK  101  A    between atoms: _247  and  _250
REMARK  102  A    between atoms: _250  and  _251
REMARK  103  A    between atoms: _254  and  _256
REMARK  104  A    between atoms: _256  and  _257
REMARK  105  A    between atoms: _256  and  _259
REMARK  106  A    between atoms: _259  and  _260
REMARK  107  A    between atoms: _260  and  _261
REMARK  108  A    between atoms: _261  and  _262
REMARK  109  A    between atoms: _271  and  _273
REMARK  110  A    between atoms: _273  and  _274
REMARK  111  A    between atoms: _273  and  _276
REMARK  112  A    between atoms: _276  and  _277
REMARK  113  A    between atoms: _282  and  _284
REMARK  114  A    between atoms: _284  and  _285
REMARK  115  A    between atoms: _284  and  _287
REMARK  116  A    between atoms: _287  and  _288
REMARK  117  A    between atoms: _288  and  _289
REMARK  118  A    between atoms: _289  and  _290
REMARK  119  A    between atoms: _290  and  _291
REMARK  120  A    between atoms: _295  and  _297
REMARK  121  A    between atoms: _297  and  _298
REMARK  122  A    between atoms: _297  and  _300
REMARK  123  A    between atoms: _300  and  _301
REMARK  124  A    between atoms: _301  and  _302
REMARK  125  A    between atoms: _307  and  _309
REMARK  126  A    between atoms: _309  and  _310
REMARK  127  A    between atoms: _309  and  _312
REMARK  128  A    between atoms: _312  and  _313
REMARK  129  A    between atoms: _313  and  _314
REMARK  130  A    between atoms: _319  and  _321
REMARK  131  A    between atoms: _321  and  _322
REMARK  132  A    between atoms: _321  and  _324
REMARK  133  A    between atoms: _324  and  _325
REMARK  134  A    between atoms: _325  and  _326
REMARK  135  A    between atoms: _326  and  _327
REMARK  136  A    between atoms: _336  and  _338
REMARK  137  A    between atoms: _338  and  _339
REMARK  138  A    between atoms: _338  and  _341
REMARK  139  A    between atoms: _341  and  _342
REMARK  140  A    between atoms: _342  and  _343
REMARK  141  A    between atoms: _345  and  _347
REMARK  142  A    between atoms: _347  and  _348
REMARK  143  A    between atoms: _347  and  _350
REMARK  144  A    between atoms: _350  and  _351
REMARK  145  A    between atoms: _361  and  _363
REMARK  146  A    between atoms: _363  and  _364
REMARK  147  A    between atoms: _363  and  _366
REMARK  148  A    between atoms: _366  and  _367
REMARK  149  A    between atoms: _370  and  _372
REMARK  150  A    between atoms: _372  and  _373
REMARK  151  A    between atoms: _372  and  _375
REMARK  152  A    between atoms: _375  and  _376
REMARK  153  A    between atoms: _379  and  _381
REMARK  154  A    between atoms: _381  and  _382
REMARK  155  A    between atoms: _381  and  _384
REMARK  156  A    between atoms: _384  and  _385
REMARK  157  A    between atoms: _388  and  _390
REMARK  158  A    between atoms: _390  and  _391
REMARK  159  A    between atoms: _390  and  _393
REMARK  160  A    between atoms: _393  and  _394
REMARK  161  A    between atoms: _399  and  _400
REMARK  162  A    between atoms: _402  and  _404
REMARK  163  A    between atoms: _404  and  _405
REMARK  164  A    between atoms: _404  and  _407
REMARK  165  A    between atoms: _407  and  _408
REMARK  166  A    between atoms: _408  and  _409
REMARK  167  A    between atoms: _409  and  _410
REMARK  168  A    between atoms: _419  and  _421
REMARK  169  A    between atoms: _421  and  _422
REMARK  170  A    between atoms: _421  and  _424
REMARK  171  A    between atoms: _424  and  _425
REMARK  172  A    between atoms: _431  and  _433
REMARK  173  A    between atoms: _433  and  _434
REMARK  174  A    between atoms: _433  and  _436
REMARK  175  A    between atoms: _436  and  _437
REMARK  176  A    between atoms: _440  and  _442
REMARK  177  A    between atoms: _442  and  _443
REMARK  178  A    between atoms: _442  and  _445
REMARK  179  A    between atoms: _445  and  _446
REMARK  180  A    between atoms: _446  and  _447
REMARK  181  A    between atoms: _447  and  _448
REMARK  182  A    between atoms: _457  and  _459
REMARK  183  A    between atoms: _459  and  _460
REMARK  184  A    between atoms: _459  and  _462
REMARK  185  A    between atoms: _462  and  _463
REMARK  186  A    between atoms: _466  and  _468
REMARK  187  A    between atoms: _468  and  _469
REMARK  188  A    between atoms: _468  and  _471
REMARK  189  A    between atoms: _471  and  _472
REMARK  190  A    between atoms: _475  and  _477
REMARK  191  A    between atoms: _477  and  _478
REMARK  192  A    between atoms: _477  and  _480
REMARK  193  A    between atoms: _480  and  _481
REMARK  194  A    between atoms: _484  and  _486
REMARK  195  A    between atoms: _486  and  _487
REMARK  196  A    between atoms: _486  and  _489
REMARK  197  A    between atoms: _489  and  _490
REMARK  198  A    between atoms: _500  and  _502
REMARK  199  A    between atoms: _502  and  _503
REMARK  200  A    between atoms: _502  and  _505
REMARK  201  A    between atoms: _508  and  _510
REMARK  202  A    between atoms: _510  and  _511
REMARK  203  A    between atoms: _510  and  _513
REMARK  204  A    between atoms: _513  and  _514
REMARK  205  A    between atoms: _516  and  _518
REMARK  206  A    between atoms: _518  and  _519
REMARK  207  A    between atoms: _518  and  _521
REMARK  208  A    between atoms: _524  and  _526
REMARK  209  A    between atoms: _526  and  _527
REMARK  210  A    between atoms: _526  and  _529
REMARK  211  A    between atoms: _529  and  _530
REMARK  212  A    between atoms: _530  and  _531
REMARK  213  A    between atoms: _531  and  _532
REMARK  214  A    between atoms: _541  and  _543
REMARK  215  A    between atoms: _543  and  _544
REMARK  216  A    between atoms: _543  and  _546
REMARK  217  A    between atoms: _546  and  _547
REMARK  218  A    between atoms: _547  and  _548
REMARK  219  A    between atoms: _551  and  _553
REMARK  220  A    between atoms: _553  and  _554
REMARK  221  A    between atoms: _553  and  _556
REMARK  222  A    between atoms: _556  and  _557
REMARK  223  A    between atoms: _557  and  _558
REMARK  224  A    between atoms: _563  and  _565
REMARK  225  A    between atoms: _565  and  _566
REMARK  226  A    between atoms: _565  and  _568
REMARK  227  A    between atoms: _568  and  _569
REMARK  228  A    between atoms: _572  and  _574
REMARK  229  A    between atoms: _574  and  _575
REMARK  230  A    between atoms: _574  and  _577
REMARK  231  A    between atoms: _580  and  _582
REMARK  232  A    between atoms: _582  and  _583
REMARK  233  A    between atoms: _582  and  _585
REMARK  234  A    between atoms: _585  and  _586
REMARK  235  A    between atoms: _588  and  _590
REMARK  236  A    between atoms: _590  and  _591
REMARK  237  A    between atoms: _590  and  _593
REMARK  238  A    between atoms: _596  and  _598
REMARK  239  A    between atoms: _598  and  _599
REMARK  240  A    between atoms: _598  and  _601
REMARK  241  A    between atoms: _601  and  _602
REMARK  242  A    between atoms: _602  and  _603
REMARK  243  A    between atoms: _603  and  _604
REMARK  244  A    between atoms: _613  and  _615
REMARK  245  A    between atoms: _615  and  _616
REMARK  246  A    between atoms: _615  and  _618
REMARK  247  A    between atoms: _618  and  _619
REMARK  248  A    between atoms: _629  and  _631
REMARK  249  A    between atoms: _631  and  _632
REMARK  250  A    between atoms: _631  and  _634
REMARK  251  A    between atoms: _634  and  _635
REMARK  252  A    between atoms: _640  and  _641
REMARK  253  A    between atoms: _643  and  _645
REMARK  254  A    between atoms: _645  and  _646
REMARK  255  A    between atoms: _645  and  _648
REMARK  256  A    between atoms: _648  and  _649
REMARK  257  A    between atoms: _649  and  _650
REMARK  258  A    between atoms: _650  and  _651
REMARK  259  A    between atoms: _661  and  _662
REMARK  260  A    between atoms: _667  and  _669
REMARK  261  A    between atoms: _669  and  _670
REMARK  262  A    between atoms: _672  and  _674
REMARK  263  A    between atoms: _674  and  _675
REMARK  264  A    between atoms: _678  and  _679
REMARK  265  A    between atoms: _684  and  _686
REMARK  266  A    between atoms: _686  and  _687
REMARK  267  A    between atoms: _686  and  _689
REMARK  268  A    between atoms: _689  and  _690
REMARK  269  A    between atoms: _693  and  _695
REMARK  270  A    between atoms: _695  and  _696
REMARK  271  A    between atoms: _695  and  _698
REMARK  272  A    between atoms: _698  and  _699
REMARK  273  A    between atoms: _702  and  _704
REMARK  274  A    between atoms: _704  and  _705
REMARK  275  A    between atoms: _708  and  _710
REMARK  276  A    between atoms: _710  and  _711
REMARK  277  A    between atoms: _710  and  _713
REMARK  278  A    between atoms: _713  and  _714
REMARK  279  A    between atoms: _714  and  _715
REMARK  280  A    between atoms: _720  and  _722
REMARK  281  A    between atoms: _722  and  _723
REMARK  282  A    between atoms: _722  and  _725
REMARK                            x       y       z     vdW  Elec       q    Type
REMARK                         _______ _______ _______ _____ _____    ______ ____
ROOT
ATOM      1  O   HOH     1       1.810  40.354  12.505  0.00  0.00    +0.000 OA
ENDROOT
TORSDOF 0
REMARK  Name = ../refined-set-2016/4w97/4w97_pocket.pdb
REMARK  282 active torsions:
REMARK  status: ('A' for Active; 'I' for Inactive)
REMARK    1  A    between atoms: _1  and  _3
REMARK    2  A    between atoms: _3  and  _4
REMARK    3  A    between atoms: _3  and  _6
REMARK    4  A    between atoms: _6  and  _7
REMARK    5  A    between atoms: _10  and  _12
REMARK    6  A    between atoms: _12  and  _13
REMARK    7  A    between atoms: _12  and  _15
REMARK    8  A    between atoms: _15  and  _16
REMARK    9  A    between atoms: _22  and  _24
REMARK   10  A    between atoms: _24  and  _25
REMARK   11  A    between atoms: _24  and  _27
REMARK   12  A    between atoms: _27  and  _28
REMARK   13  A    between atoms: _31  and  _33
REMARK   14  A    between atoms: _33  and  _34
REMARK   15  A    between atoms: _33  and  _36
REMARK   16  A    between atoms: _36  and  _37
REMARK   17  A    between atoms: _40  and  _42
REMARK   18  A    between atoms: _42  and  _43
REMARK   19  A    between atoms: _42  and  _45
REMARK   20  A    between atoms: _45  and  _46
REMARK   21  A    between atoms: _52  and  _54
REMARK   22  A    between atoms: _54  and  _55
REMARK   23  A    between atoms: _54  and  _57
REMARK   24  A    between atoms: _57  and  _58
REMARK   25  A    between atoms: _63  and  _64
REMARK   26  A    between atoms: _66  and  _68
REMARK   27  A    between atoms: _68  and  _69
REMARK   28  A    between atoms: _68  and  _71
REMARK   29  A    between atoms: _71  and  _72
REMARK   30  A    between atoms: _74  and  _76
REMARK   31  A    between atoms: _76  and  _77
REMARK   32  A    between atoms: _80  and  _82
REMARK   33  A    between atoms: _82  and  _83
REMARK   34  A    between atoms: _82  and  _85
REMARK   35  A    between atoms: _85  and  _86
REMARK   36  A    between atoms: _89  and  _91
REMARK   37  A    between atoms: _91  and  _92
REMARK   38  A    between atoms: _91  and  _94
REMARK   39  A    between atoms: _94  and  _95
REMARK   40  A    between atoms: _95  and  _96
REMARK   41  A    between atoms: _101  and  _103
REMARK   42  A    between atoms: _103  and  _104
REMARK   43  A    between atoms: _103  and  _106
REMARK   44  A    between atoms: _109  and  _111
REMARK   45  A    between atoms: _111  and  _112
REMARK   46  A    between atoms: _111  and  _114
REMARK   47  A    between atoms: _117  and  _119
REMARK   48  A    between atoms: _119  and  _120
REMARK   49  A    between atoms: _119  and  _122
REMARK   50  A    between atoms: _122  and  _123
REMARK   51  A    between atoms: _126  and  _128
REMARK   52  A    between atoms: _128  and  _129
REMARK   53  A    between atoms: _128  and  _131
REMARK   54  A    between atoms: _131  and  _132
REMARK   55  A    between atoms: _137  and  _138
REMARK   56  A    between atoms: _140  and  _142
REMARK   57  A    between atoms: _142  and  _143
REMARK   58  A    between atoms: _142  and  _145
REMARK   59  A    between atoms: _145  and  _146
REMARK   60  A    between atoms: _146  and  _147
REMARK   61  A    between atoms: _152  and  _154
REMARK   62  A    between atoms: _154  and  _155
REMARK   63  A    between atoms: _154  and  _157
REMARK   64  A    between atoms: _157  and  _158
REMARK   65  A    between atoms: _161  and  _163
REMARK   66  A    between atoms: _163  and  _164
REMARK   67  A    between atoms: _163  and  _166
REMARK   68  A    between atoms: _166  and  _167
REMARK   69  A    between atoms: _167  and  _168
REMARK   70  A    between atoms: _171  and  _173
REMARK   71  A    between atoms: _173  and  _174
REMARK   72  A    between atoms: _177  and  _179
REMARK   73  A    between atoms: _179  and  _180
REMARK   74  A    between atoms: _179  and  _182
REMARK   75  A    between atoms: _182  and  _183
REMARK   76  A    between atoms: _183  and  _184
REMARK   77  A    between atoms: _189  and  _191
REMARK   78  A    between atoms: _191  and  _192
REMARK   79  A    between atoms: _191  and  _194
REMARK   80  A    between atoms: _194  and  _195
REMARK   81  A    between atoms: _195  and  _196
REMARK   82  A    between atoms: _196  and  _197
REMARK   83  A    between atoms: _206  and  _208
REMARK   84  A    between atoms: _208  and  _209
REMARK   85  A    between atoms: _212  and  _214
REMARK   86  A    between atoms: _214  and  _215
REMARK   87  A    between atoms: _214  and  _217
REMARK   88  A    between atoms: _217  and  _218
REMARK   89  A    between atoms: _223  and  _224
REMARK   90  A    between atoms: _226  and  _228
REMARK   91  A    between atoms: _228  and  _229
REMARK   92  A    between atoms: _228  and  _231
REMARK   93  A    between atoms: _231  and  _232
REMARK   94  A    between atoms: _235  and  _237
REMARK   95  A    between atoms: _237  and  _238
REMARK   96  A    between atoms: _237  and  _240
REMARK   97  A    between atoms: _240  and  _241
REMARK   98  A    between atoms: _241  and  _242
REMARK   99  A    between atoms: _245  and  _247
REMARK  100  A    between atoms: _247  and  _248
REMARK  101  A    between atoms: _247  and  _250
REMARK  102  A    between atoms: _250  and  _251
REMARK  103  A    between atoms: _254  and  _256
REMARK  104  A    between atoms: _256  and  _257
REMARK  105  A    between atoms: _256  and  _259
REMARK  106  A    between atoms: _259  and  _260
REMARK  107  A    between atoms: _260  and  _261
REMARK  108  A    between atoms: _261  and  _262
REMARK  109  A    between atoms: _271  and  _273
REMARK  110  A    between atoms: _273  and  _274
REMARK  111  A    between atoms: _273  and  _276
REMARK  112  A    between atoms: _276  and  _277
REMARK  113  A    between atoms: _282  and  _284
REMARK  114  A    between atoms: _284  and  _285
REMARK  115  A    between atoms: _284  and  _287
REMARK  116  A    between atoms: _287  and  _288
REMARK  117  A    between atoms: _288  and  _289
REMARK  118  A    between atoms: _289  and  _290
REMARK  119  A    between atoms: _290  and  _291
REMARK  120  A    between atoms: _295  and  _297
REMARK  121  A    between atoms: _297  and  _298
REMARK  122  A    between atoms: _297  and  _300
REMARK  123  A    between atoms: _300  and  _301
REMARK  124  A    between atoms: _301  and  _302
REMARK  125  A    between atoms: _307  and  _309
REMARK  126  A    between atoms: _309  and  _310
REMARK  127  A    between atoms: _309  and  _312
REMARK  128  A    between atoms: _312  and  _313
REMARK  129  A    between atoms: _313  and  _314
REMARK  130  A    between atoms: _319  and  _321
REMARK  131  A    between atoms: _321  and  _322
REMARK  132  A    between atoms: _321  and  _324
REMARK  133  A    between atoms: _324  and  _325
REMARK  134  A    between atoms: _325  and  _326
REMARK  135  A    between atoms: _326  and  _327
REMARK  136  A    between atoms: _336  and  _338
REMARK  137  A    between atoms: _338  and  _339
REMARK  138  A    between atoms: _338  and  _341
REMARK  139  A    between atoms: _341  and  _342
REMARK  140  A    between atoms: _342  and  _343
REMARK  141  A    between atoms: _345  and  _347
REMARK  142  A    between atoms: _347  and  _348
REMARK  143  A    between atoms: _347  and  _350
REMARK  144  A    between atoms: _350  and  _351
REMARK  145  A    between atoms: _361  and  _363
REMARK  146  A    between atoms: _363  and  _364
REMARK  147  A    between atoms: _363  and  _366
REMARK  148  A    between atoms: _366  and  _367
REMARK  149  A    between atoms: _370  and  _372
REMARK  150  A    between atoms: _372  and  _373
REMARK  151  A    between atoms: _372  and  _375
REMARK  152  A    between atoms: _375  and  _376
REMARK  153  A    between atoms: _379  and  _381
REMARK  154  A    between atoms: _381  and  _382
REMARK  155  A    between atoms: _381  and  _384
REMARK  156  A    between atoms: _384  and  _385
REMARK  157  A    between atoms: _388  and  _390
REMARK  158  A    between atoms: _390  and  _391
REMARK  159  A    between atoms: _390  and  _393
REMARK  160  A    between atoms: _393  and  _394
REMARK  161  A    between atoms: _399  and  _400
REMARK  162  A    between atoms: _402  and  _404
REMARK  163  A    between atoms: _404  and  _405
REMARK  164  A    between atoms: _404  and  _407
REMARK  165  A    between atoms: _407  and  _408
REMARK  166  A    between atoms: _408  and  _409
REMARK  167  A    between atoms: _409  and  _410
REMARK  168  A    between atoms: _419  and  _421
REMARK  169  A    between atoms: _421  and  _422
REMARK  170  A    between atoms: _421  and  _424
REMARK  171  A    between atoms: _424  and  _425
REMARK  172  A    between atoms: _431  and  _433
REMARK  173  A    between atoms: _433  and  _434
REMARK  174  A    between atoms: _433  and  _436
REMARK  175  A    between atoms: _436  and  _437
REMARK  176  A    between atoms: _440  and  _442
REMARK  177  A    between atoms: _442  and  _443
REMARK  178  A    between atoms: _442  and  _445
REMARK  179  A    between atoms: _445  and  _446
REMARK  180  A    between atoms: _446  and  _447
REMARK  181  A    between atoms: _447  and  _448
REMARK  182  A    between atoms: _457  and  _459
REMARK  183  A    between atoms: _459  and  _460
REMARK  184  A    between atoms: _459  and  _462
REMARK  185  A    between atoms: _462  and  _463
REMARK  186  A    between atoms: _466  and  _468
REMARK  187  A    between atoms: _468  and  _469
REMARK  188  A    between atoms: _468  and  _471
REMARK  189  A    between atoms: _471  and  _472
REMARK  190  A    between atoms: _475  and  _477
REMARK  191  A    between atoms: _477  and  _478
REMARK  192  A    between atoms: _477  and  _480
REMARK  193  A    between atoms: _480  and  _481
REMARK  194  A    between atoms: _484  and  _486
REMARK  195  A    between atoms: _486  and  _487
REMARK  196  A    between atoms: _486  and  _489
REMARK  197  A    between atoms: _489  and  _490
REMARK  198  A    between atoms: _500  and  _502
REMARK  199  A    between atoms: _502  and  _503
REMARK  200  A    between atoms: _502  and  _505
REMARK  201  A    between atoms: _508  and  _510
REMARK  202  A    between atoms: _510  and  _511
REMARK  203  A    between atoms: _510  and  _513
REMARK  204  A    between atoms: _513  and  _514
REMARK  205  A    between atoms: _516  and  _518
REMARK  206  A    between atoms: _518  and  _519
REMARK  207  A    between atoms: _518  and  _521
REMARK  208  A    between atoms: _524  and  _526
REMARK  209  A    between atoms: _526  and  _527
REMARK  210  A    between atoms: _526  and  _529
REMARK  211  A    between atoms: _529  and  _530
REMARK  212  A    between atoms: _530  and  _531
REMARK  213  A    between atoms: _531  and  _532
REMARK  214  A    between atoms: _541  and  _543
REMARK  215  A    between atoms: _543  and  _544
REMARK  216  A    between atoms: _543  and  _546
REMARK  217  A    between atoms: _546  and  _547
REMARK  218  A    between atoms: _547  and  _548
REMARK  219  A    between atoms: _551  and  _553
REMARK  220  A    between atoms: _553  and  _554
REMARK  221  A    between atoms: _553  and  _556
REMARK  222  A    between atoms: _556  and  _557
REMARK  223  A    between atoms: _557  and  _558
REMARK  224  A    between atoms: _563  and  _565
REMARK  225  A    between atoms: _565  and  _566
REMARK  226  A    between atoms: _565  and  _568
REMARK  227  A    between atoms: _568  and  _569
REMARK  228  A    between atoms: _572  and  _574
REMARK  229  A    between atoms: _574  and  _575
REMARK  230  A    between atoms: _574  and  _577
REMARK  231  A    between atoms: _580  and  _582
REMARK  232  A    between atoms: _582  and  _583
REMARK  233  A    between atoms: _582  and  _585
REMARK  234  A    between atoms: _585  and  _586
REMARK  235  A    between atoms: _588  and  _590
REMARK  236  A    between atoms: _590  and  _591
REMARK  237  A    between atoms: _590  and  _593
REMARK  238  A    between atoms: _596  and  _598
REMARK  239  A    between atoms: _598  and  _599
REMARK  240  A    between atoms: _598  and  _601
REMARK  241  A    between atoms: _601  and  _602
REMARK  242  A    between atoms: _602  and  _603
REMARK  243  A    between atoms: _603  and  _604
REMARK  244  A    between atoms: _613  and  _615
REMARK  245  A    between atoms: _615  and  _616
REMARK  246  A    between atoms: _615  and  _618
REMARK  247  A    between atoms: _618  and  _619
REMARK  248  A    between atoms: _629  and  _631
REMARK  249  A    between atoms: _631  and  _632
REMARK  250  A    between atoms: _631  and  _634
REMARK  251  A    between atoms: _634  and  _635
REMARK  252  A    between atoms: _640  and  _641
REMARK  253  A    between atoms: _643  and  _645
REMARK  254  A    between atoms: _645  and  _646
REMARK  255  A    between atoms: _645  and  _648
REMARK  256  A    between atoms: _648  and  _649
REMARK  257  A    between atoms: _649  and  _650
REMARK  258  A    between atoms: _650  and  _651
REMARK  259  A    between atoms: _661  and  _662
REMARK  260  A    between atoms: _667  and  _669
REMARK  261  A    between atoms: _669  and  _670
REMARK  262  A    between atoms: _672  and  _674
REMARK  263  A    between atoms: _674  and  _675
REMARK  264  A    between atoms: _678  and  _679
REMARK  265  A    between atoms: _684  and  _686
REMARK  266  A    between atoms: _686  and  _687
REMARK  267  A    between atoms: _686  and  _689
REMARK  268  A    between atoms: _689  and  _690
REMARK  269  A    between atoms: _693  and  _695
REMARK  270  A    between atoms: _695  and  _696
REMARK  271  A    between atoms: _695  and  _698
REMARK  272  A    between atoms: _698  and  _699
REMARK  273  A    between atoms: _702  and  _704
REMARK  274  A    between atoms: _704  and  _705
REMARK  275  A    between atoms: _708  and  _710
REMARK  276  A    between atoms: _710  and  _711
REMARK  277  A    between atoms: _710  and  _713
REMARK  278  A    between atoms: _713  and  _714
REMARK  279  A    between atoms: _714  and  _715
REMARK  280  A    between atoms: _720  and  _722
REMARK  281  A    between atoms: _722  and  _723
REMARK  282  A    between atoms: _722  and  _725
REMARK                            x       y       z     vdW  Elec       q    Type
REMARK                         _______ _______ _______ _____ _____    ______ ____
ROOT
ATOM      1  O   HOH     1     -11.180  47.311  19.319  0.00  0.00    +0.000 OA
ENDROOT
TORSDOF 0
REMARK  Name = ../refined-set-2016/4w97/4w97_pocket.pdb
REMARK  282 active torsions:
REMARK  status: ('A' for Active; 'I' for Inactive)
REMARK    1  A    between atoms: _1  and  _3
REMARK    2  A    between atoms: _3  and  _4
REMARK    3  A    between atoms: _3  and  _6
REMARK    4  A    between atoms: _6  and  _7
REMARK    5  A    between atoms: _10  and  _12
REMARK    6  A    between atoms: _12  and  _13
REMARK    7  A    between atoms: _12  and  _15
REMARK    8  A    between atoms: _15  and  _16
REMARK    9  A    between atoms: _22  and  _24
REMARK   10  A    between atoms: _24  and  _25
REMARK   11  A    between atoms: _24  and  _27
REMARK   12  A    between atoms: _27  and  _28
REMARK   13  A    between atoms: _31  and  _33
REMARK   14  A    between atoms: _33  and  _34
REMARK   15  A    between atoms: _33  and  _36
REMARK   16  A    between atoms: _36  and  _37
REMARK   17  A    between atoms: _40  and  _42
REMARK   18  A    between atoms: _42  and  _43
REMARK   19  A    between atoms: _42  and  _45
REMARK   20  A    between atoms: _45  and  _46
REMARK   21  A    between atoms: _52  and  _54
REMARK   22  A    between atoms: _54  and  _55
REMARK   23  A    between atoms: _54  and  _57
REMARK   24  A    between atoms: _57  and  _58
REMARK   25  A    between atoms: _63  and  _64
REMARK   26  A    between atoms: _66  and  _68
REMARK   27  A    between atoms: _68  and  _69
REMARK   28  A    between atoms: _68  and  _71
REMARK   29  A    between atoms: _71  and  _72
REMARK   30  A    between atoms: _74  and  _76
REMARK   31  A    between atoms: _76  and  _77
REMARK   32  A    between atoms: _80  and  _82
REMARK   33  A    between atoms: _82  and  _83
REMARK   34  A    between atoms: _82  and  _85
REMARK   35  A    between atoms: _85  and  _86
REMARK   36  A    between atoms: _89  and  _91
REMARK   37  A    between atoms: _91  and  _92
REMARK   38  A    between atoms: _91  and  _94
REMARK   39  A    between atoms: _94  and  _95
REMARK   40  A    between atoms: _95  and  _96
REMARK   41  A    between atoms: _101  and  _103
REMARK   42  A    between atoms: _103  and  _104
REMARK   43  A    between atoms: _103  and  _106
REMARK   44  A    between atoms: _109  and  _111
REMARK   45  A    between atoms: _111  and  _112
REMARK   46  A    between atoms: _111  and  _114
REMARK   47  A    between atoms: _117  and  _119
REMARK   48  A    between atoms: _119  and  _120
REMARK   49  A    between atoms: _119  and  _122
REMARK   50  A    between atoms: _122  and  _123
REMARK   51  A    between atoms: _126  and  _128
REMARK   52  A    between atoms: _128  and  _129
REMARK   53  A    between atoms: _128  and  _131
REMARK   54  A    between atoms: _131  and  _132
REMARK   55  A    between atoms: _137  and  _138
REMARK   56  A    between atoms: _140  and  _142
REMARK   57  A    between atoms: _142  and  _143
REMARK   58  A    between atoms: _142  and  _145
REMARK   59  A    between atoms: _145  and  _146
REMARK   60  A    between atoms: _146  and  _147
REMARK   61  A    between atoms: _152  and  _154
REMARK   62  A    between atoms: _154  and  _155
REMARK   63  A    between atoms: _154  and  _157
REMARK   64  A    between atoms: _157  and  _158
REMARK   65  A    between atoms: _161  and  _163
REMARK   66  A    between atoms: _163  and  _164
REMARK   67  A    between atoms: _163  and  _166
REMARK   68  A    between atoms: _166  and  _167
REMARK   69  A    between atoms: _167  and  _168
REMARK   70  A    between atoms: _171  and  _173
REMARK   71  A    between atoms: _173  and  _174
REMARK   72  A    between atoms: _177  and  _179
REMARK   73  A    between atoms: _179  and  _180
REMARK   74  A    between atoms: _179  and  _182
REMARK   75  A    between atoms: _182  and  _183
REMARK   76  A    between atoms: _183  and  _184
REMARK   77  A    between atoms: _189  and  _191
REMARK   78  A    between atoms: _191  and  _192
REMARK   79  A    between atoms: _191  and  _194
REMARK   80  A    between atoms: _194  and  _195
REMARK   81  A    between atoms: _195  and  _196
REMARK   82  A    between atoms: _196  and  _197
REMARK   83  A    between atoms: _206  and  _208
REMARK   84  A    between atoms: _208  and  _209
REMARK   85  A    between atoms: _212  and  _214
REMARK   86  A    between atoms: _214  and  _215
REMARK   87  A    between atoms: _214  and  _217
REMARK   88  A    between atoms: _217  and  _218
REMARK   89  A    between atoms: _223  and  _224
REMARK   90  A    between atoms: _226  and  _228
REMARK   91  A    between atoms: _228  and  _229
REMARK   92  A    between atoms: _228  and  _231
REMARK   93  A    between atoms: _231  and  _232
REMARK   94  A    between atoms: _235  and  _237
REMARK   95  A    between atoms: _237  and  _238
REMARK   96  A    between atoms: _237  and  _240
REMARK   97  A    between atoms: _240  and  _241
REMARK   98  A    between atoms: _241  and  _242
REMARK   99  A    between atoms: _245  and  _247
REMARK  100  A    between atoms: _247  and  _248
REMARK  101  A    between atoms: _247  and  _250
REMARK  102  A    between atoms: _250  and  _251
REMARK  103  A    between atoms: _254  and  _256
REMARK  104  A    between atoms: _256  and  _257
REMARK  105  A    between atoms: _256  and  _259
REMARK  106  A    between atoms: _259  and  _260
REMARK  107  A    between atoms: _260  and  _261
REMARK  108  A    between atoms: _261  and  _262
REMARK  109  A    between atoms: _271  and  _273
REMARK  110  A    between atoms: _273  and  _274
REMARK  111  A    between atoms: _273  and  _276
REMARK  112  A    between atoms: _276  and  _277
REMARK  113  A    between atoms: _282  and  _284
REMARK  114  A    between atoms: _284  and  _285
REMARK  115  A    between atoms: _284  and  _287
REMARK  116  A    between atoms: _287  and  _288
REMARK  117  A    between atoms: _288  and  _289
REMARK  118  A    between atoms: _289  and  _290
REMARK  119  A    between atoms: _290  and  _291
REMARK  120  A    between atoms: _295  and  _297
REMARK  121  A    between atoms: _297  and  _298
REMARK  122  A    between atoms: _297  and  _300
REMARK  123  A    between atoms: _300  and  _301
REMARK  124  A    between atoms: _301  and  _302
REMARK  125  A    between atoms: _307  and  _309
REMARK  126  A    between atoms: _309  and  _310
REMARK  127  A    between atoms: _309  and  _312
REMARK  128  A    between atoms: _312  and  _313
REMARK  129  A    between atoms: _313  and  _314
REMARK  130  A    between atoms: _319  and  _321
REMARK  131  A    between atoms: _321  and  _322
REMARK  132  A    between atoms: _321  and  _324
REMARK  133  A    between atoms: _324  and  _325
REMARK  134  A    between atoms: _325  and  _326
REMARK  135  A    between atoms: _326  and  _327
REMARK  136  A    between atoms: _336  and  _338
REMARK  137  A    between atoms: _338  and  _339
REMARK  138  A    between atoms: _338  and  _341
REMARK  139  A    between atoms: _341  and  _342
REMARK  140  A    between atoms: _342  and  _343
REMARK  141  A    between atoms: _345  and  _347
REMARK  142  A    between atoms: _347  and  _348
REMARK  143  A    between atoms: _347  and  _350
REMARK  144  A    between atoms: _350  and  _351
REMARK  145  A    between atoms: _361  and  _363
REMARK  146  A    between atoms: _363  and  _364
REMARK  147  A    between atoms: _363  and  _366
REMARK  148  A    between atoms: _366  and  _367
REMARK  149  A    between atoms: _370  and  _372
REMARK  150  A    between atoms: _372  and  _373
REMARK  151  A    between atoms: _372  and  _375
REMARK  152  A    between atoms: _375  and  _376
REMARK  153  A    between atoms: _379  and  _381
REMARK  154  A    between atoms: _381  and  _382
REMARK  155  A    between atoms: _381  and  _384
REMARK  156  A    between atoms: _384  and  _385
REMARK  157  A    between atoms: _388  and  _390
REMARK  158  A    between atoms: _390  and  _391
REMARK  159  A    between atoms: _390  and  _393
REMARK  160  A    between atoms: _393  and  _394
REMARK  161  A    between atoms: _399  and  _400
REMARK  162  A    between atoms: _402  and  _404
REMARK  163  A    between atoms: _404  and  _405
REMARK  164  A    between atoms: _404  and  _407
REMARK  165  A    between atoms: _407  and  _408
REMARK  166  A    between atoms: _408  and  _409
REMARK  167  A    between atoms: _409  and  _410
REMARK  168  A    between atoms: _419  and  _421
REMARK  169  A    between atoms: _421  and  _422
REMARK  170  A    between atoms: _421  and  _424
REMARK  171  A    between atoms: _424  and  _425
REMARK  172  A    between atoms: _431  and  _433
REMARK  173  A    between atoms: _433  and  _434
REMARK  174  A    between atoms: _433  and  _436
REMARK  175  A    between atoms: _436  and  _437
REMARK  176  A    between atoms: _440  and  _442
REMARK  177  A    between atoms: _442  and  _443
REMARK  178  A    between atoms: _442  and  _445
REMARK  179  A    between atoms: _445  and  _446
REMARK  180  A    between atoms: _446  and  _447
REMARK  181  A    between atoms: _447  and  _448
REMARK  182  A    between atoms: _457  and  _459
REMARK  183  A    between atoms: _459  and  _460
REMARK  184  A    between atoms: _459  and  _462
REMARK  185  A    between atoms: _462  and  _463
REMARK  186  A    between atoms: _466  and  _468
REMARK  187  A    between atoms: _468  and  _469
REMARK  188  A    between atoms: _468  and  _471
REMARK  189  A    between atoms: _471  and  _472
REMARK  190  A    between atoms: _475  and  _477
REMARK  191  A    between atoms: _477  and  _478
REMARK  192  A    between atoms: _477  and  _480
REMARK  193  A    between atoms: _480  and  _481
REMARK  194  A    between atoms: _484  and  _486
REMARK  195  A    between atoms: _486  and  _487
REMARK  196  A    between atoms: _486  and  _489
REMARK  197  A    between atoms: _489  and  _490
REMARK  198  A    between atoms: _500  and  _502
REMARK  199  A    between atoms: _502  and  _503
REMARK  200  A    between atoms: _502  and  _505
REMARK  201  A    between atoms: _508  and  _510
REMARK  202  A    between atoms: _510  and  _511
REMARK  203  A    between atoms: _510  and  _513
REMARK  204  A    between atoms: _513  and  _514
REMARK  205  A    between atoms: _516  and  _518
REMARK  206  A    between atoms: _518  and  _519
REMARK  207  A    between atoms: _518  and  _521
REMARK  208  A    between atoms: _524  and  _526
REMARK  209  A    between atoms: _526  and  _527
REMARK  210  A    between atoms: _526  and  _529
REMARK  211  A    between atoms: _529  and  _530
REMARK  212  A    between atoms: _530  and  _531
REMARK  213  A    between atoms: _531  and  _532
REMARK  214  A    between atoms: _541  and  _543
REMARK  215  A    between atoms: _543  and  _544
REMARK  216  A    between atoms: _543  and  _546
REMARK  217  A    between atoms: _546  and  _547
REMARK  218  A    between atoms: _547  and  _548
REMARK  219  A    between atoms: _551  and  _553
REMARK  220  A    between atoms: _553  and  _554
REMARK  221  A    between atoms: _553  and  _556
REMARK  222  A    between atoms: _556  and  _557
REMARK  223  A    between atoms: _557  and  _558
REMARK  224  A    between atoms: _563  and  _565
REMARK  225  A    between atoms: _565  and  _566
REMARK  226  A    between atoms: _565  and  _568
REMARK  227  A    between atoms: _568  and  _569
REMARK  228  A    between atoms: _572  and  _574
REMARK  229  A    between atoms: _574  and  _575
REMARK  230  A    between atoms: _574  and  _577
REMARK  231  A    between atoms: _580  and  _582
REMARK  232  A    between atoms: _582  and  _583
REMARK  233  A    between atoms: _582  and  _585
REMARK  234  A    between atoms: _585  and  _586
REMARK  235  A    between atoms: _588  and  _590
REMARK  236  A    between atoms: _590  and  _591
REMARK  237  A    between atoms: _590  and  _593
REMARK  238  A    between atoms: _596  and  _598
REMARK  239  A    between atoms: _598  and  _599
REMARK  240  A    between atoms: _598  and  _601
REMARK  241  A    between atoms: _601  and  _602
REMARK  242  A    between atoms: _602  and  _603
REMARK  243  A    between atoms: _603  and  _604
REMARK  244  A    between atoms: _613  and  _615
REMARK  245  A    between atoms: _615  and  _616
REMARK  246  A    between atoms: _615  and  _618
REMARK  247  A    between atoms: _618  and  _619
REMARK  248  A    between atoms: _629  and  _631
REMARK  249  A    between atoms: _631  and  _632
REMARK  250  A    between atoms: _631  and  _634
REMARK  251  A    between atoms: _634  and  _635
REMARK  252  A    between atoms: _640  and  _641
REMARK  253  A    between atoms: _643  and  _645
REMARK  254  A    between atoms: _645  and  _646
REMARK  255  A    between atoms: _645  and  _648
REMARK  256  A    between atoms: _648  and  _649
REMARK  257  A    between atoms: _649  and  _650
REMARK  258  A    between atoms: _650  and  _651
REMARK  259  A    between atoms: _661  and  _662
REMARK  260  A    between atoms: _667  and  _669
REMARK  261  A    between atoms: _669  and  _670
REMARK  262  A    between atoms: _672  and  _674
REMARK  263  A    between atoms: _674  and  _675
REMARK  264  A    between atoms: _678  and  _679
REMARK  265  A    between atoms: _684  and  _686
REMARK  266  A    between atoms: _686  and  _687
REMARK  267  A    between atoms: _686  and  _689
REMARK  268  A    between atoms: _689  and  _690
REMARK  269  A    between atoms: _693  and  _695
REMARK  270  A    between atoms: _695  and  _696
REMARK  271  A    between atoms: _695  and  _698
REMARK  272  A    between atoms: _698  and  _699
REMARK  273  A    between atoms: _702  and  _704
REMARK  274  A    between atoms: _704  and  _705
REMARK  275  A    between atoms: _708  and  _710
REMARK  276  A    between atoms: _710  and  _711
REMARK  277  A    between atoms: _710  and  _713
REMARK  278  A    between atoms: _713  and  _714
REMARK  279  A    between atoms: _714  and  _715
REMARK  280  A    between atoms: _720  and  _722
REMARK  281  A    between atoms: _722  and  _723
REMARK  282  A    between atoms: _722  and  _725
REMARK                            x       y       z     vdW  Elec       q    Type
REMARK                         _______ _______ _______ _____ _____    ______ ____
ROOT
ATOM      1  O   HOH     1      -9.279  53.162  15.409  0.00  0.00    +0.000 OA
ENDROOT
TORSDOF 0
REMARK  Name = ../refined-set-2016/4w97/4w97_pocket.pdb
REMARK  282 active torsions:
REMARK  status: ('A' for Active; 'I' for Inactive)
REMARK    1  A    between atoms: _1  and  _3
REMARK    2  A    between atoms: _3  and  _4
REMARK    3  A    between atoms: _3  and  _6
REMARK    4  A    between atoms: _6  and  _7
REMARK    5  A    between atoms: _10  and  _12
REMARK    6  A    between atoms: _12  and  _13
REMARK    7  A    between atoms: _12  and  _15
REMARK    8  A    between atoms: _15  and  _16
REMARK    9  A    between atoms: _22  and  _24
REMARK   10  A    between atoms: _24  and  _25
REMARK   11  A    between atoms: _24  and  _27
REMARK   12  A    between atoms: _27  and  _28
REMARK   13  A    between atoms: _31  and  _33
REMARK   14  A    between atoms: _33  and  _34
REMARK   15  A    between atoms: _33  and  _36
REMARK   16  A    between atoms: _36  and  _37
REMARK   17  A    between atoms: _40  and  _42
REMARK   18  A    between atoms: _42  and  _43
REMARK   19  A    between atoms: _42  and  _45
REMARK   20  A    between atoms: _45  and  _46
REMARK   21  A    between atoms: _52  and  _54
REMARK   22  A    between atoms: _54  and  _55
REMARK   23  A    between atoms: _54  and  _57
REMARK   24  A    between atoms: _57  and  _58
REMARK   25  A    between atoms: _63  and  _64
REMARK   26  A    between atoms: _66  and  _68
REMARK   27  A    between atoms: _68  and  _69
REMARK   28  A    between atoms: _68  and  _71
REMARK   29  A    between atoms: _71  and  _72
REMARK   30  A    between atoms: _74  and  _76
REMARK   31  A    between atoms: _76  and  _77
REMARK   32  A    between atoms: _80  and  _82
REMARK   33  A    between atoms: _82  and  _83
REMARK   34  A    between atoms: _82  and  _85
REMARK   35  A    between atoms: _85  and  _86
REMARK   36  A    between atoms: _89  and  _91
REMARK   37  A    between atoms: _91  and  _92
REMARK   38  A    between atoms: _91  and  _94
REMARK   39  A    between atoms: _94  and  _95
REMARK   40  A    between atoms: _95  and  _96
REMARK   41  A    between atoms: _101  and  _103
REMARK   42  A    between atoms: _103  and  _104
REMARK   43  A    between atoms: _103  and  _106
REMARK   44  A    between atoms: _109  and  _111
REMARK   45  A    between atoms: _111  and  _112
REMARK   46  A    between atoms: _111  and  _114
REMARK   47  A    between atoms: _117  and  _119
REMARK   48  A    between atoms: _119  and  _120
REMARK   49  A    between atoms: _119  and  _122
REMARK   50  A    between atoms: _122  and  _123
REMARK   51  A    between atoms: _126  and  _128
REMARK   52  A    between atoms: _128  and  _129
REMARK   53  A    between atoms: _128  and  _131
REMARK   54  A    between atoms: _131  and  _132
REMARK   55  A    between atoms: _137  and  _138
REMARK   56  A    between atoms: _140  and  _142
REMARK   57  A    between atoms: _142  and  _143
REMARK   58  A    between atoms: _142  and  _145
REMARK   59  A    between atoms: _145  and  _146
REMARK   60  A    between atoms: _146  and  _147
REMARK   61  A    between atoms: _152  and  _154
REMARK   62  A    between atoms: _154  and  _155
REMARK   63  A    between atoms: _154  and  _157
REMARK   64  A    between atoms: _157  and  _158
REMARK   65  A    between atoms: _161  and  _163
REMARK   66  A    between atoms: _163  and  _164
REMARK   67  A    between atoms: _163  and  _166
REMARK   68  A    between atoms: _166  and  _167
REMARK   69  A    between atoms: _167  and  _168
REMARK   70  A    between atoms: _171  and  _173
REMARK   71  A    between atoms: _173  and  _174
REMARK   72  A    between atoms: _177  and  _179
REMARK   73  A    between atoms: _179  and  _180
REMARK   74  A    between atoms: _179  and  _182
REMARK   75  A    between atoms: _182  and  _183
REMARK   76  A    between atoms: _183  and  _184
REMARK   77  A    between atoms: _189  and  _191
REMARK   78  A    between atoms: _191  and  _192
REMARK   79  A    between atoms: _191  and  _194
REMARK   80  A    between atoms: _194  and  _195
REMARK   81  A    between atoms: _195  and  _196
REMARK   82  A    between atoms: _196  and  _197
REMARK   83  A    between atoms: _206  and  _208
REMARK   84  A    between atoms: _208  and  _209
REMARK   85  A    between atoms: _212  and  _214
REMARK   86  A    between atoms: _214  and  _215
REMARK   87  A    between atoms: _214  and  _217
REMARK   88  A    between atoms: _217  and  _218
REMARK   89  A    between atoms: _223  and  _224
REMARK   90  A    between atoms: _226  and  _228
REMARK   91  A    between atoms: _228  and  _229
REMARK   92  A    between atoms: _228  and  _231
REMARK   93  A    between atoms: _231  and  _232
REMARK   94  A    between atoms: _235  and  _237
REMARK   95  A    between atoms: _237  and  _238
REMARK   96  A    between atoms: _237  and  _240
REMARK   97  A    between atoms: _240  and  _241
REMARK   98  A    between atoms: _241  and  _242
REMARK   99  A    between atoms: _245  and  _247
REMARK  100  A    between atoms: _247  and  _248
REMARK  101  A    between atoms: _247  and  _250
REMARK  102  A    between atoms: _250  and  _251
REMARK  103  A    between atoms: _254  and  _256
REMARK  104  A    between atoms: _256  and  _257
REMARK  105  A    between atoms: _256  and  _259
REMARK  106  A    between atoms: _259  and  _260
REMARK  107  A    between atoms: _260  and  _261
REMARK  108  A    between atoms: _261  and  _262
REMARK  109  A    between atoms: _271  and  _273
REMARK  110  A    between atoms: _273  and  _274
REMARK  111  A    between atoms: _273  and  _276
REMARK  112  A    between atoms: _276  and  _277
REMARK  113  A    between atoms: _282  and  _284
REMARK  114  A    between atoms: _284  and  _285
REMARK  115  A    between atoms: _284  and  _287
REMARK  116  A    between atoms: _287  and  _288
REMARK  117  A    between atoms: _288  and  _289
REMARK  118  A    between atoms: _289  and  _290
REMARK  119  A    between atoms: _290  and  _291
REMARK  120  A    between atoms: _295  and  _297
REMARK  121  A    between atoms: _297  and  _298
REMARK  122  A    between atoms: _297  and  _300
REMARK  123  A    between atoms: _300  and  _301
REMARK  124  A    between atoms: _301  and  _302
REMARK  125  A    between atoms: _307  and  _309
REMARK  126  A    between atoms: _309  and  _310
REMARK  127  A    between atoms: _309  and  _312
REMARK  128  A    between atoms: _312  and  _313
REMARK  129  A    between atoms: _313  and  _314
REMARK  130  A    between atoms: _319  and  _321
REMARK  131  A    between atoms: _321  and  _322
REMARK  132  A    between atoms: _321  and  _324
REMARK  133  A    between atoms: _324  and  _325
REMARK  134  A    between atoms: _325  and  _326
REMARK  135  A    between atoms: _326  and  _327
REMARK  136  A    between atoms: _336  and  _338
REMARK  137  A    between atoms: _338  and  _339
REMARK  138  A    between atoms: _338  and  _341
REMARK  139  A    between atoms: _341  and  _342
REMARK  140  A    between atoms: _342  and  _343
REMARK  141  A    between atoms: _345  and  _347
REMARK  142  A    between atoms: _347  and  _348
REMARK  143  A    between atoms: _347  and  _350
REMARK  144  A    between atoms: _350  and  _351
REMARK  145  A    between atoms: _361  and  _363
REMARK  146  A    between atoms: _363  and  _364
REMARK  147  A    between atoms: _363  and  _366
REMARK  148  A    between atoms: _366  and  _367
REMARK  149  A    between atoms: _370  and  _372
REMARK  150  A    between atoms: _372  and  _373
REMARK  151  A    between atoms: _372  and  _375
REMARK  152  A    between atoms: _375  and  _376
REMARK  153  A    between atoms: _379  and  _381
REMARK  154  A    between atoms: _381  and  _382
REMARK  155  A    between atoms: _381  and  _384
REMARK  156  A    between atoms: _384  and  _385
REMARK  157  A    between atoms: _388  and  _390
REMARK  158  A    between atoms: _390  and  _391
REMARK  159  A    between atoms: _390  and  _393
REMARK  160  A    between atoms: _393  and  _394
REMARK  161  A    between atoms: _399  and  _400
REMARK  162  A    between atoms: _402  and  _404
REMARK  163  A    between atoms: _404  and  _405
REMARK  164  A    between atoms: _404  and  _407
REMARK  165  A    between atoms: _407  and  _408
REMARK  166  A    between atoms: _408  and  _409
REMARK  167  A    between atoms: _409  and  _410
REMARK  168  A    between atoms: _419  and  _421
REMARK  169  A    between atoms: _421  and  _422
REMARK  170  A    between atoms: _421  and  _424
REMARK  171  A    between atoms: _424  and  _425
REMARK  172  A    between atoms: _431  and  _433
REMARK  173  A    between atoms: _433  and  _434
REMARK  174  A    between atoms: _433  and  _436
REMARK  175  A    between atoms: _436  and  _437
REMARK  176  A    between atoms: _440  and  _442
REMARK  177  A    between atoms: _442  and  _443
REMARK  178  A    between atoms: _442  and  _445
REMARK  179  A    between atoms: _445  and  _446
REMARK  180  A    between atoms: _446  and  _447
REMARK  181  A    between atoms: _447  and  _448
REMARK  182  A    between atoms: _457  and  _459
REMARK  183  A    between atoms: _459  and  _460
REMARK  184  A    between atoms: _459  and  _462
REMARK  185  A    between atoms: _462  and  _463
REMARK  186  A    between atoms: _466  and  _468
REMARK  187  A    between atoms: _468  and  _469
REMARK  188  A    between atoms: _468  and  _471
REMARK  189  A    between atoms: _471  and  _472
REMARK  190  A    between atoms: _475  and  _477
REMARK  191  A    between atoms: _477  and  _478
REMARK  192  A    between atoms: _477  and  _480
REMARK  193  A    between atoms: _480  and  _481
REMARK  194  A    between atoms: _484  and  _486
REMARK  195  A    between atoms: _486  and  _487
REMARK  196  A    between atoms: _486  and  _489
REMARK  197  A    between atoms: _489  and  _490
REMARK  198  A    between atoms: _500  and  _502
REMARK  199  A    between atoms: _502  and  _503
REMARK  200  A    between atoms: _502  and  _505
REMARK  201  A    between atoms: _508  and  _510
REMARK  202  A    between atoms: _510  and  _511
REMARK  203  A    between atoms: _510  and  _513
REMARK  204  A    between atoms: _513  and  _514
REMARK  205  A    between atoms: _516  and  _518
REMARK  206  A    between atoms: _518  and  _519
REMARK  207  A    between atoms: _518  and  _521
REMARK  208  A    between atoms: _524  and  _526
REMARK  209  A    between atoms: _526  and  _527
REMARK  210  A    between atoms: _526  and  _529
REMARK  211  A    between atoms: _529  and  _530
REMARK  212  A    between atoms: _530  and  _531
REMARK  213  A    between atoms: _531  and  _532
REMARK  214  A    between atoms: _541  and  _543
REMARK  215  A    between atoms: _543  and  _544
REMARK  216  A    between atoms: _543  and  _546
REMARK  217  A    between atoms: _546  and  _547
REMARK  218  A    between atoms: _547  and  _548
REMARK  219  A    between atoms: _551  and  _553
REMARK  220  A    between atoms: _553  and  _554
REMARK  221  A    between atoms: _553  and  _556
REMARK  222  A    between atoms: _556  and  _557
REMARK  223  A    between atoms: _557  and  _558
REMARK  224  A    between atoms: _563  and  _565
REMARK  225  A    between atoms: _565  and  _566
REMARK  226  A    between atoms: _565  and  _568
REMARK  227  A    between atoms: _568  and  _569
REMARK  228  A    between atoms: _572  and  _574
REMARK  229  A    between atoms: _574  and  _575
REMARK  230  A    between atoms: _574  and  _577
REMARK  231  A    between atoms: _580  and  _582
REMARK  232  A    between atoms: _582  and  _583
REMARK  233  A    between atoms: _582  and  _585
REMARK  234  A    between atoms: _585  and  _586
REMARK  235  A    between atoms: _588  and  _590
REMARK  236  A    between atoms: _590  and  _591
REMARK  237  A    between atoms: _590  and  _593
REMARK  238  A    between atoms: _596  and  _598
REMARK  239  A    between atoms: _598  and  _599
REMARK  240  A    between atoms: _598  and  _601
REMARK  241  A    between atoms: _601  and  _602
REMARK  242  A    between atoms: _602  and  _603
REMARK  243  A    between atoms: _603  and  _604
REMARK  244  A    between atoms: _613  and  _615
REMARK  245  A    between atoms: _615  and  _616
REMARK  246  A    between atoms: _615  and  _618
REMARK  247  A    between atoms: _618  and  _619
REMARK  248  A    between atoms: _629  and  _631
REMARK  249  A    between atoms: _631  and  _632
REMARK  250  A    between atoms: _631  and  _634
REMARK  251  A    between atoms: _634  and  _635
REMARK  252  A    between atoms: _640  and  _641
REMARK  253  A    between atoms: _643  and  _645
REMARK  254  A    between atoms: _645  and  _646
REMARK  255  A    between atoms: _645  and  _648
REMARK  256  A    between atoms: _648  and  _649
REMARK  257  A    between atoms: _649  and  _650
REMARK  258  A    between atoms: _650  and  _651
REMARK  259  A    between atoms: _661  and  _662
REMARK  260  A    between atoms: _667  and  _669
REMARK  261  A    between atoms: _669  and  _670
REMARK  262  A    between atoms: _672  and  _674
REMARK  263  A    between atoms: _674  and  _675
REMARK  264  A    between atoms: _678  and  _679
REMARK  265  A    between atoms: _684  and  _686
REMARK  266  A    between atoms: _686  and  _687
REMARK  267  A    between atoms: _686  and  _689
REMARK  268  A    between atoms: _689  and  _690
REMARK  269  A    between atoms: _693  and  _695
REMARK  270  A    between atoms: _695  and  _696
REMARK  271  A    between atoms: _695  and  _698
REMARK  272  A    between atoms: _698  and  _699
REMARK  273  A    between atoms: _702  and  _704
REMARK  274  A    between atoms: _704  and  _705
REMARK  275  A    between atoms: _708  and  _710
REMARK  276  A    between atoms: _710  and  _711
REMARK  277  A    between atoms: _710  and  _713
REMARK  278  A    between atoms: _713  and  _714
REMARK  279  A    between atoms: _714  and  _715
REMARK  280  A    between atoms: _720  and  _722
REMARK  281  A    between atoms: _722  and  _723
REMARK  282  A    between atoms: _722  and  _725
REMARK                            x       y       z     vdW  Elec       q    Type
REMARK                         _______ _______ _______ _____ _____    ______ ____
ROOT
ATOM      1  O   HOH     1       0.738  50.698  13.919  0.00  0.00    +0.000 OA
ENDROOT
TORSDOF 0
REMARK  Name = ../refined-set-2016/4w97/4w97_pocket.pdb
REMARK  282 active torsions:
REMARK  status: ('A' for Active; 'I' for Inactive)
REMARK    1  A    between atoms: _1  and  _3
REMARK    2  A    between atoms: _3  and  _4
REMARK    3  A    between atoms: _3  and  _6
REMARK    4  A    between atoms: _6  and  _7
REMARK    5  A    between atoms: _10  and  _12
REMARK    6  A    between atoms: _12  and  _13
REMARK    7  A    between atoms: _12  and  _15
REMARK    8  A    between atoms: _15  and  _16
REMARK    9  A    between atoms: _22  and  _24
REMARK   10  A    between atoms: _24  and  _25
REMARK   11  A    between atoms: _24  and  _27
REMARK   12  A    between atoms: _27  and  _28
REMARK   13  A    between atoms: _31  and  _33
REMARK   14  A    between atoms: _33  and  _34
REMARK   15  A    between atoms: _33  and  _36
REMARK   16  A    between atoms: _36  and  _37
REMARK   17  A    between atoms: _40  and  _42
REMARK   18  A    between atoms: _42  and  _43
REMARK   19  A    between atoms: _42  and  _45
REMARK   20  A    between atoms: _45  and  _46
REMARK   21  A    between atoms: _52  and  _54
REMARK   22  A    between atoms: _54  and  _55
REMARK   23  A    between atoms: _54  and  _57
REMARK   24  A    between atoms: _57  and  _58
REMARK   25  A    between atoms: _63  and  _64
REMARK   26  A    between atoms: _66  and  _68
REMARK   27  A    between atoms: _68  and  _69
REMARK   28  A    between atoms: _68  and  _71
REMARK   29  A    between atoms: _71  and  _72
REMARK   30  A    between atoms: _74  and  _76
REMARK   31  A    between atoms: _76  and  _77
REMARK   32  A    between atoms: _80  and  _82
REMARK   33  A    between atoms: _82  and  _83
REMARK   34  A    between atoms: _82  and  _85
REMARK   35  A    between atoms: _85  and  _86
REMARK   36  A    between atoms: _89  and  _91
REMARK   37  A    between atoms: _91  and  _92
REMARK   38  A    between atoms: _91  and  _94
REMARK   39  A    between atoms: _94  and  _95
REMARK   40  A    between atoms: _95  and  _96
REMARK   41  A    between atoms: _101  and  _103
REMARK   42  A    between atoms: _103  and  _104
REMARK   43  A    between atoms: _103  and  _106
REMARK   44  A    between atoms: _109  and  _111
REMARK   45  A    between atoms: _111  and  _112
REMARK   46  A    between atoms: _111  and  _114
REMARK   47  A    between atoms: _117  and  _119
REMARK   48  A    between atoms: _119  and  _120
REMARK   49  A    between atoms: _119  and  _122
REMARK   50  A    between atoms: _122  and  _123
REMARK   51  A    between atoms: _126  and  _128
REMARK   52  A    between atoms: _128  and  _129
REMARK   53  A    between atoms: _128  and  _131
REMARK   54  A    between atoms: _131  and  _132
REMARK   55  A    between atoms: _137  and  _138
REMARK   56  A    between atoms: _140  and  _142
REMARK   57  A    between atoms: _142  and  _143
REMARK   58  A    between atoms: _142  and  _145
REMARK   59  A    between atoms: _145  and  _146
REMARK   60  A    between atoms: _146  and  _147
REMARK   61  A    between atoms: _152  and  _154
REMARK   62  A    between atoms: _154  and  _155
REMARK   63  A    between atoms: _154  and  _157
REMARK   64  A    between atoms: _157  and  _158
REMARK   65  A    between atoms: _161  and  _163
REMARK   66  A    between atoms: _163  and  _164
REMARK   67  A    between atoms: _163  and  _166
REMARK   68  A    between atoms: _166  and  _167
REMARK   69  A    between atoms: _167  and  _168
REMARK   70  A    between atoms: _171  and  _173
REMARK   71  A    between atoms: _173  and  _174
REMARK   72  A    between atoms: _177  and  _179
REMARK   73  A    between atoms: _179  and  _180
REMARK   74  A    between atoms: _179  and  _182
REMARK   75  A    between atoms: _182  and  _183
REMARK   76  A    between atoms: _183  and  _184
REMARK   77  A    between atoms: _189  and  _191
REMARK   78  A    between atoms: _191  and  _192
REMARK   79  A    between atoms: _191  and  _194
REMARK   80  A    between atoms: _194  and  _195
REMARK   81  A    between atoms: _195  and  _196
REMARK   82  A    between atoms: _196  and  _197
REMARK   83  A    between atoms: _206  and  _208
REMARK   84  A    between atoms: _208  and  _209
REMARK   85  A    between atoms: _212  and  _214
REMARK   86  A    between atoms: _214  and  _215
REMARK   87  A    between atoms: _214  and  _217
REMARK   88  A    between atoms: _217  and  _218
REMARK   89  A    between atoms: _223  and  _224
REMARK   90  A    between atoms: _226  and  _228
REMARK   91  A    between atoms: _228  and  _229
REMARK   92  A    between atoms: _228  and  _231
REMARK   93  A    between atoms: _231  and  _232
REMARK   94  A    between atoms: _235  and  _237
REMARK   95  A    between atoms: _237  and  _238
REMARK   96  A    between atoms: _237  and  _240
REMARK   97  A    between atoms: _240  and  _241
REMARK   98  A    between atoms: _241  and  _242
REMARK   99  A    between atoms: _245  and  _247
REMARK  100  A    between atoms: _247  and  _248
REMARK  101  A    between atoms: _247  and  _250
REMARK  102  A    between atoms: _250  and  _251
REMARK  103  A    between atoms: _254  and  _256
REMARK  104  A    between atoms: _256  and  _257
REMARK  105  A    between atoms: _256  and  _259
REMARK  106  A    between atoms: _259  and  _260
REMARK  107  A    between atoms: _260  and  _261
REMARK  108  A    between atoms: _261  and  _262
REMARK  109  A    between atoms: _271  and  _273
REMARK  110  A    between atoms: _273  and  _274
REMARK  111  A    between atoms: _273  and  _276
REMARK  112  A    between atoms: _276  and  _277
REMARK  113  A    between atoms: _282  and  _284
REMARK  114  A    between atoms: _284  and  _285
REMARK  115  A    between atoms: _284  and  _287
REMARK  116  A    between atoms: _287  and  _288
REMARK  117  A    between atoms: _288  and  _289
REMARK  118  A    between atoms: _289  and  _290
REMARK  119  A    between atoms: _290  and  _291
REMARK  120  A    between atoms: _295  and  _297
REMARK  121  A    between atoms: _297  and  _298
REMARK  122  A    between atoms: _297  and  _300
REMARK  123  A    between atoms: _300  and  _301
REMARK  124  A    between atoms: _301  and  _302
REMARK  125  A    between atoms: _307  and  _309
REMARK  126  A    between atoms: _309  and  _310
REMARK  127  A    between atoms: _309  and  _312
REMARK  128  A    between atoms: _312  and  _313
REMARK  129  A    between atoms: _313  and  _314
REMARK  130  A    between atoms: _319  and  _321
REMARK  131  A    between atoms: _321  and  _322
REMARK  132  A    between atoms: _321  and  _324
REMARK  133  A    between atoms: _324  and  _325
REMARK  134  A    between atoms: _325  and  _326
REMARK  135  A    between atoms: _326  and  _327
REMARK  136  A    between atoms: _336  and  _338
REMARK  137  A    between atoms: _338  and  _339
REMARK  138  A    between atoms: _338  and  _341
REMARK  139  A    between atoms: _341  and  _342
REMARK  140  A    between atoms: _342  and  _343
REMARK  141  A    between atoms: _345  and  _347
REMARK  142  A    between atoms: _347  and  _348
REMARK  143  A    between atoms: _347  and  _350
REMARK  144  A    between atoms: _350  and  _351
REMARK  145  A    between atoms: _361  and  _363
REMARK  146  A    between atoms: _363  and  _364
REMARK  147  A    between atoms: _363  and  _366
REMARK  148  A    between atoms: _366  and  _367
REMARK  149  A    between atoms: _370  and  _372
REMARK  150  A    between atoms: _372  and  _373
REMARK  151  A    between atoms: _372  and  _375
REMARK  152  A    between atoms: _375  and  _376
REMARK  153  A    between atoms: _379  and  _381
REMARK  154  A    between atoms: _381  and  _382
REMARK  155  A    between atoms: _381  and  _384
REMARK  156  A    between atoms: _384  and  _385
REMARK  157  A    between atoms: _388  and  _390
REMARK  158  A    between atoms: _390  and  _391
REMARK  159  A    between atoms: _390  and  _393
REMARK  160  A    between atoms: _393  and  _394
REMARK  161  A    between atoms: _399  and  _400
REMARK  162  A    between atoms: _402  and  _404
REMARK  163  A    between atoms: _404  and  _405
REMARK  164  A    between atoms: _404  and  _407
REMARK  165  A    between atoms: _407  and  _408
REMARK  166  A    between atoms: _408  and  _409
REMARK  167  A    between atoms: _409  and  _410
REMARK  168  A    between atoms: _419  and  _421
REMARK  169  A    between atoms: _421  and  _422
REMARK  170  A    between atoms: _421  and  _424
REMARK  171  A    between atoms: _424  and  _425
REMARK  172  A    between atoms: _431  and  _433
REMARK  173  A    between atoms: _433  and  _434
REMARK  174  A    between atoms: _433  and  _436
REMARK  175  A    between atoms: _436  and  _437
REMARK  176  A    between atoms: _440  and  _442
REMARK  177  A    between atoms: _442  and  _443
REMARK  178  A    between atoms: _442  and  _445
REMARK  179  A    between atoms: _445  and  _446
REMARK  180  A    between atoms: _446  and  _447
REMARK  181  A    between atoms: _447  and  _448
REMARK  182  A    between atoms: _457  and  _459
REMARK  183  A    between atoms: _459  and  _460
REMARK  184  A    between atoms: _459  and  _462
REMARK  185  A    between atoms: _462  and  _463
REMARK  186  A    between atoms: _466  and  _468
REMARK  187  A    between atoms: _468  and  _469
REMARK  188  A    between atoms: _468  and  _471
REMARK  189  A    between atoms: _471  and  _472
REMARK  190  A    between atoms: _475  and  _477
REMARK  191  A    between atoms: _477  and  _478
REMARK  192  A    between atoms: _477  and  _480
REMARK  193  A    between atoms: _480  and  _481
REMARK  194  A    between atoms: _484  and  _486
REMARK  195  A    between atoms: _486  and  _487
REMARK  196  A    between atoms: _486  and  _489
REMARK  197  A    between atoms: _489  and  _490
REMARK  198  A    between atoms: _500  and  _502
REMARK  199  A    between atoms: _502  and  _503
REMARK  200  A    between atoms: _502  and  _505
REMARK  201  A    between atoms: _508  and  _510
REMARK  202  A    between atoms: _510  and  _511
REMARK  203  A    between atoms: _510  and  _513
REMARK  204  A    between atoms: _513  and  _514
REMARK  205  A    between atoms: _516  and  _518
REMARK  206  A    between atoms: _518  and  _519
REMARK  207  A    between atoms: _518  and  _521
REMARK  208  A    between atoms: _524  and  _526
REMARK  209  A    between atoms: _526  and  _527
REMARK  210  A    between atoms: _526  and  _529
REMARK  211  A    between atoms: _529  and  _530
REMARK  212  A    between atoms: _530  and  _531
REMARK  213  A    between atoms: _531  and  _532
REMARK  214  A    between atoms: _541  and  _543
REMARK  215  A    between atoms: _543  and  _544
REMARK  216  A    between atoms: _543  and  _546
REMARK  217  A    between atoms: _546  and  _547
REMARK  218  A    between atoms: _547  and  _548
REMARK  219  A    between atoms: _551  and  _553
REMARK  220  A    between atoms: _553  and  _554
REMARK  221  A    between atoms: _553  and  _556
REMARK  222  A    between atoms: _556  and  _557
REMARK  223  A    between atoms: _557  and  _558
REMARK  224  A    between atoms: _563  and  _565
REMARK  225  A    between atoms: _565  and  _566
REMARK  226  A    between atoms: _565  and  _568
REMARK  227  A    between atoms: _568  and  _569
REMARK  228  A    between atoms: _572  and  _574
REMARK  229  A    between atoms: _574  and  _575
REMARK  230  A    between atoms: _574  and  _577
REMARK  231  A    between atoms: _580  and  _582
REMARK  232  A    between atoms: _582  and  _583
REMARK  233  A    between atoms: _582  and  _585
REMARK  234  A    between atoms: _585  and  _586
REMARK  235  A    between atoms: _588  and  _590
REMARK  236  A    between atoms: _590  and  _591
REMARK  237  A    between atoms: _590  and  _593
REMARK  238  A    between atoms: _596  and  _598
REMARK  239  A    between atoms: _598  and  _599
REMARK  240  A    between atoms: _598  and  _601
REMARK  241  A    between atoms: _601  and  _602
REMARK  242  A    between atoms: _602  and  _603
REMARK  243  A    between atoms: _603  and  _604
REMARK  244  A    between atoms: _613  and  _615
REMARK  245  A    between atoms: _615  and  _616
REMARK  246  A    between atoms: _615  and  _618
REMARK  247  A    between atoms: _618  and  _619
REMARK  248  A    between atoms: _629  and  _631
REMARK  249  A    between atoms: _631  and  _632
REMARK  250  A    between atoms: _631  and  _634
REMARK  251  A    between atoms: _634  and  _635
REMARK  252  A    between atoms: _640  and  _641
REMARK  253  A    between atoms: _643  and  _645
REMARK  254  A    between atoms: _645  and  _646
REMARK  255  A    between atoms: _645  and  _648
REMARK  256  A    between atoms: _648  and  _649
REMARK  257  A    between atoms: _649  and  _650
REMARK  258  A    between atoms: _650  and  _651
REMARK  259  A    between atoms: _661  and  _662
REMARK  260  A    between atoms: _667  and  _669
REMARK  261  A    between atoms: _669  and  _670
REMARK  262  A    between atoms: _672  and  _674
REMARK  263  A    between atoms: _674  and  _675
REMARK  264  A    between atoms: _678  and  _679
REMARK  265  A    between atoms: _684  and  _686
REMARK  266  A    between atoms: _686  and  _687
REMARK  267  A    between atoms: _686  and  _689
REMARK  268  A    between atoms: _689  and  _690
REMARK  269  A    between atoms: _693  and  _695
REMARK  270  A    between atoms: _695  and  _696
REMARK  271  A    between atoms: _695  and  _698
REMARK  272  A    between atoms: _698  and  _699
REMARK  273  A    between atoms: _702  and  _704
REMARK  274  A    between atoms: _704  and  _705
REMARK  275  A    between atoms: _708  and  _710
REMARK  276  A    between atoms: _710  and  _711
REMARK  277  A    between atoms: _710  and  _713
REMARK  278  A    between atoms: _713  and  _714
REMARK  279  A    between atoms: _714  and  _715
REMARK  280  A    between atoms: _720  and  _722
REMARK  281  A    between atoms: _722  and  _723
REMARK  282  A    between atoms: _722  and  _725
REMARK                            x       y       z     vdW  Elec       q    Type
REMARK                         _______ _______ _______ _____ _____    ______ ____
ROOT
ATOM      1  O   HOH     1      -3.308  51.490  13.948  0.00  0.00    +0.000 OA
ENDROOT
TORSDOF 0
REMARK  Name = ../refined-set-2016/4w97/4w97_pocket.pdb
REMARK  282 active torsions:
REMARK  status: ('A' for Active; 'I' for Inactive)
REMARK    1  A    between atoms: _1  and  _3
REMARK    2  A    between atoms: _3  and  _4
REMARK    3  A    between atoms: _3  and  _6
REMARK    4  A    between atoms: _6  and  _7
REMARK    5  A    between atoms: _10  and  _12
REMARK    6  A    between atoms: _12  and  _13
REMARK    7  A    between atoms: _12  and  _15
REMARK    8  A    between atoms: _15  and  _16
REMARK    9  A    between atoms: _22  and  _24
REMARK   10  A    between atoms: _24  and  _25
REMARK   11  A    between atoms: _24  and  _27
REMARK   12  A    between atoms: _27  and  _28
REMARK   13  A    between atoms: _31  and  _33
REMARK   14  A    between atoms: _33  and  _34
REMARK   15  A    between atoms: _33  and  _36
REMARK   16  A    between atoms: _36  and  _37
REMARK   17  A    between atoms: _40  and  _42
REMARK   18  A    between atoms: _42  and  _43
REMARK   19  A    between atoms: _42  and  _45
REMARK   20  A    between atoms: _45  and  _46
REMARK   21  A    between atoms: _52  and  _54
REMARK   22  A    between atoms: _54  and  _55
REMARK   23  A    between atoms: _54  and  _57
REMARK   24  A    between atoms: _57  and  _58
REMARK   25  A    between atoms: _63  and  _64
REMARK   26  A    between atoms: _66  and  _68
REMARK   27  A    between atoms: _68  and  _69
REMARK   28  A    between atoms: _68  and  _71
REMARK   29  A    between atoms: _71  and  _72
REMARK   30  A    between atoms: _74  and  _76
REMARK   31  A    between atoms: _76  and  _77
REMARK   32  A    between atoms: _80  and  _82
REMARK   33  A    between atoms: _82  and  _83
REMARK   34  A    between atoms: _82  and  _85
REMARK   35  A    between atoms: _85  and  _86
REMARK   36  A    between atoms: _89  and  _91
REMARK   37  A    between atoms: _91  and  _92
REMARK   38  A    between atoms: _91  and  _94
REMARK   39  A    between atoms: _94  and  _95
REMARK   40  A    between atoms: _95  and  _96
REMARK   41  A    between atoms: _101  and  _103
REMARK   42  A    between atoms: _103  and  _104
REMARK   43  A    between atoms: _103  and  _106
REMARK   44  A    between atoms: _109  and  _111
REMARK   45  A    between atoms: _111  and  _112
REMARK   46  A    between atoms: _111  and  _114
REMARK   47  A    between atoms: _117  and  _119
REMARK   48  A    between atoms: _119  and  _120
REMARK   49  A    between atoms: _119  and  _122
REMARK   50  A    between atoms: _122  and  _123
REMARK   51  A    between atoms: _126  and  _128
REMARK   52  A    between atoms: _128  and  _129
REMARK   53  A    between atoms: _128  and  _131
REMARK   54  A    between atoms: _131  and  _132
REMARK   55  A    between atoms: _137  and  _138
REMARK   56  A    between atoms: _140  and  _142
REMARK   57  A    between atoms: _142  and  _143
REMARK   58  A    between atoms: _142  and  _145
REMARK   59  A    between atoms: _145  and  _146
REMARK   60  A    between atoms: _146  and  _147
REMARK   61  A    between atoms: _152  and  _154
REMARK   62  A    between atoms: _154  and  _155
REMARK   63  A    between atoms: _154  and  _157
REMARK   64  A    between atoms: _157  and  _158
REMARK   65  A    between atoms: _161  and  _163
REMARK   66  A    between atoms: _163  and  _164
REMARK   67  A    between atoms: _163  and  _166
REMARK   68  A    between atoms: _166  and  _167
REMARK   69  A    between atoms: _167  and  _168
REMARK   70  A    between atoms: _171  and  _173
REMARK   71  A    between atoms: _173  and  _174
REMARK   72  A    between atoms: _177  and  _179
REMARK   73  A    between atoms: _179  and  _180
REMARK   74  A    between atoms: _179  and  _182
REMARK   75  A    between atoms: _182  and  _183
REMARK   76  A    between atoms: _183  and  _184
REMARK   77  A    between atoms: _189  and  _191
REMARK   78  A    between atoms: _191  and  _192
REMARK   79  A    between atoms: _191  and  _194
REMARK   80  A    between atoms: _194  and  _195
REMARK   81  A    between atoms: _195  and  _196
REMARK   82  A    between atoms: _196  and  _197
REMARK   83  A    between atoms: _206  and  _208
REMARK   84  A    between atoms: _208  and  _209
REMARK   85  A    between atoms: _212  and  _214
REMARK   86  A    between atoms: _214  and  _215
REMARK   87  A    between atoms: _214  and  _217
REMARK   88  A    between atoms: _217  and  _218
REMARK   89  A    between atoms: _223  and  _224
REMARK   90  A    between atoms: _226  and  _228
REMARK   91  A    between atoms: _228  and  _229
REMARK   92  A    between atoms: _228  and  _231
REMARK   93  A    between atoms: _231  and  _232
REMARK   94  A    between atoms: _235  and  _237
REMARK   95  A    between atoms: _237  and  _238
REMARK   96  A    between atoms: _237  and  _240
REMARK   97  A    between atoms: _240  and  _241
REMARK   98  A    between atoms: _241  and  _242
REMARK   99  A    between atoms: _245  and  _247
REMARK  100  A    between atoms: _247  and  _248
REMARK  101  A    between atoms: _247  and  _250
REMARK  102  A    between atoms: _250  and  _251
REMARK  103  A    between atoms: _254  and  _256
REMARK  104  A    between atoms: _256  and  _257
REMARK  105  A    between atoms: _256  and  _259
REMARK  106  A    between atoms: _259  and  _260
REMARK  107  A    between atoms: _260  and  _261
REMARK  108  A    between atoms: _261  and  _262
REMARK  109  A    between atoms: _271  and  _273
REMARK  110  A    between atoms: _273  and  _274
REMARK  111  A    between atoms: _273  and  _276
REMARK  112  A    between atoms: _276  and  _277
REMARK  113  A    between atoms: _282  and  _284
REMARK  114  A    between atoms: _284  and  _285
REMARK  115  A    between atoms: _284  and  _287
REMARK  116  A    between atoms: _287  and  _288
REMARK  117  A    between atoms: _288  and  _289
REMARK  118  A    between atoms: _289  and  _290
REMARK  119  A    between atoms: _290  and  _291
REMARK  120  A    between atoms: _295  and  _297
REMARK  121  A    between atoms: _297  and  _298
REMARK  122  A    between atoms: _297  and  _300
REMARK  123  A    between atoms: _300  and  _301
REMARK  124  A    between atoms: _301  and  _302
REMARK  125  A    between atoms: _307  and  _309
REMARK  126  A    between atoms: _309  and  _310
REMARK  127  A    between atoms: _309  and  _312
REMARK  128  A    between atoms: _312  and  _313
REMARK  129  A    between atoms: _313  and  _314
REMARK  130  A    between atoms: _319  and  _321
REMARK  131  A    between atoms: _321  and  _322
REMARK  132  A    between atoms: _321  and  _324
REMARK  133  A    between atoms: _324  and  _325
REMARK  134  A    between atoms: _325  and  _326
REMARK  135  A    between atoms: _326  and  _327
REMARK  136  A    between atoms: _336  and  _338
REMARK  137  A    between atoms: _338  and  _339
REMARK  138  A    between atoms: _338  and  _341
REMARK  139  A    between atoms: _341  and  _342
REMARK  140  A    between atoms: _342  and  _343
REMARK  141  A    between atoms: _345  and  _347
REMARK  142  A    between atoms: _347  and  _348
REMARK  143  A    between atoms: _347  and  _350
REMARK  144  A    between atoms: _350  and  _351
REMARK  145  A    between atoms: _361  and  _363
REMARK  146  A    between atoms: _363  and  _364
REMARK  147  A    between atoms: _363  and  _366
REMARK  148  A    between atoms: _366  and  _367
REMARK  149  A    between atoms: _370  and  _372
REMARK  150  A    between atoms: _372  and  _373
REMARK  151  A    between atoms: _372  and  _375
REMARK  152  A    between atoms: _375  and  _376
REMARK  153  A    between atoms: _379  and  _381
REMARK  154  A    between atoms: _381  and  _382
REMARK  155  A    between atoms: _381  and  _384
REMARK  156  A    between atoms: _384  and  _385
REMARK  157  A    between atoms: _388  and  _390
REMARK  158  A    between atoms: _390  and  _391
REMARK  159  A    between atoms: _390  and  _393
REMARK  160  A    between atoms: _393  and  _394
REMARK  161  A    between atoms: _399  and  _400
REMARK  162  A    between atoms: _402  and  _404
REMARK  163  A    between atoms: _404  and  _405
REMARK  164  A    between atoms: _404  and  _407
REMARK  165  A    between atoms: _407  and  _408
REMARK  166  A    between atoms: _408  and  _409
REMARK  167  A    between atoms: _409  and  _410
REMARK  168  A    between atoms: _419  and  _421
REMARK  169  A    between atoms: _421  and  _422
REMARK  170  A    between atoms: _421  and  _424
REMARK  171  A    between atoms: _424  and  _425
REMARK  172  A    between atoms: _431  and  _433
REMARK  173  A    between atoms: _433  and  _434
REMARK  174  A    between atoms: _433  and  _436
REMARK  175  A    between atoms: _436  and  _437
REMARK  176  A    between atoms: _440  and  _442
REMARK  177  A    between atoms: _442  and  _443
REMARK  178  A    between atoms: _442  and  _445
REMARK  179  A    between atoms: _445  and  _446
REMARK  180  A    between atoms: _446  and  _447
REMARK  181  A    between atoms: _447  and  _448
REMARK  182  A    between atoms: _457  and  _459
REMARK  183  A    between atoms: _459  and  _460
REMARK  184  A    between atoms: _459  and  _462
REMARK  185  A    between atoms: _462  and  _463
REMARK  186  A    between atoms: _466  and  _468
REMARK  187  A    between atoms: _468  and  _469
REMARK  188  A    between atoms: _468  and  _471
REMARK  189  A    between atoms: _471  and  _472
REMARK  190  A    between atoms: _475  and  _477
REMARK  191  A    between atoms: _477  and  _478
REMARK  192  A    between atoms: _477  and  _480
REMARK  193  A    between atoms: _480  and  _481
REMARK  194  A    between atoms: _484  and  _486
REMARK  195  A    between atoms: _486  and  _487
REMARK  196  A    between atoms: _486  and  _489
REMARK  197  A    between atoms: _489  and  _490
REMARK  198  A    between atoms: _500  and  _502
REMARK  199  A    between atoms: _502  and  _503
REMARK  200  A    between atoms: _502  and  _505
REMARK  201  A    between atoms: _508  and  _510
REMARK  202  A    between atoms: _510  and  _511
REMARK  203  A    between atoms: _510  and  _513
REMARK  204  A    between atoms: _513  and  _514
REMARK  205  A    between atoms: _516  and  _518
REMARK  206  A    between atoms: _518  and  _519
REMARK  207  A    between atoms: _518  and  _521
REMARK  208  A    between atoms: _524  and  _526
REMARK  209  A    between atoms: _526  and  _527
REMARK  210  A    between atoms: _526  and  _529
REMARK  211  A    between atoms: _529  and  _530
REMARK  212  A    between atoms: _530  and  _531
REMARK  213  A    between atoms: _531  and  _532
REMARK  214  A    between atoms: _541  and  _543
REMARK  215  A    between atoms: _543  and  _544
REMARK  216  A    between atoms: _543  and  _546
REMARK  217  A    between atoms: _546  and  _547
REMARK  218  A    between atoms: _547  and  _548
REMARK  219  A    between atoms: _551  and  _553
REMARK  220  A    between atoms: _553  and  _554
REMARK  221  A    between atoms: _553  and  _556
REMARK  222  A    between atoms: _556  and  _557
REMARK  223  A    between atoms: _557  and  _558
REMARK  224  A    between atoms: _563  and  _565
REMARK  225  A    between atoms: _565  and  _566
REMARK  226  A    between atoms: _565  and  _568
REMARK  227  A    between atoms: _568  and  _569
REMARK  228  A    between atoms: _572  and  _574
REMARK  229  A    between atoms: _574  and  _575
REMARK  230  A    between atoms: _574  and  _577
REMARK  231  A    between atoms: _580  and  _582
REMARK  232  A    between atoms: _582  and  _583
REMARK  233  A    between atoms: _582  and  _585
REMARK  234  A    between atoms: _585  and  _586
REMARK  235  A    between atoms: _588  and  _590
REMARK  236  A    between atoms: _590  and  _591
REMARK  237  A    between atoms: _590  and  _593
REMARK  238  A    between atoms: _596  and  _598
REMARK  239  A    between atoms: _598  and  _599
REMARK  240  A    between atoms: _598  and  _601
REMARK  241  A    between atoms: _601  and  _602
REMARK  242  A    between atoms: _602  and  _603
REMARK  243  A    between atoms: _603  and  _604
REMARK  244  A    between atoms: _613  and  _615
REMARK  245  A    between atoms: _615  and  _616
REMARK  246  A    between atoms: _615  and  _618
REMARK  247  A    between atoms: _618  and  _619
REMARK  248  A    between atoms: _629  and  _631
REMARK  249  A    between atoms: _631  and  _632
REMARK  250  A    between atoms: _631  and  _634
REMARK  251  A    between atoms: _634  and  _635
REMARK  252  A    between atoms: _640  and  _641
REMARK  253  A    between atoms: _643  and  _645
REMARK  254  A    between atoms: _645  and  _646
REMARK  255  A    between atoms: _645  and  _648
REMARK  256  A    between atoms: _648  and  _649
REMARK  257  A    between atoms: _649  and  _650
REMARK  258  A    between atoms: _650  and  _651
REMARK  259  A    between atoms: _661  and  _662
REMARK  260  A    between atoms: _667  and  _669
REMARK  261  A    between atoms: _669  and  _670
REMARK  262  A    between atoms: _672  and  _674
REMARK  263  A    between atoms: _674  and  _675
REMARK  264  A    between atoms: _678  and  _679
REMARK  265  A    between atoms: _684  and  _686
REMARK  266  A    between atoms: _686  and  _687
REMARK  267  A    between atoms: _686  and  _689
REMARK  268  A    between atoms: _689  and  _690
REMARK  269  A    between atoms: _693  and  _695
REMARK  270  A    between atoms: _695  and  _696
REMARK  271  A    between atoms: _695  and  _698
REMARK  272  A    between atoms: _698  and  _699
REMARK  273  A    between atoms: _702  and  _704
REMARK  274  A    between atoms: _704  and  _705
REMARK  275  A    between atoms: _708  and  _710
REMARK  276  A    between atoms: _710  and  _711
REMARK  277  A    between atoms: _710  and  _713
REMARK  278  A    between atoms: _713  and  _714
REMARK  279  A    between atoms: _714  and  _715
REMARK  280  A    between atoms: _720  and  _722
REMARK  281  A    between atoms: _722  and  _723
REMARK  282  A    between atoms: _722  and  _725
REMARK                            x       y       z     vdW  Elec       q    Type
REMARK                         _______ _______ _______ _____ _____    ______ ____
ROOT
ATOM      1  O   HOH     1      -3.499  36.653   7.522  0.00  0.00    +0.000 OA
ENDROOT
TORSDOF 0
REMARK  Name = ../refined-set-2016/4w97/4w97_pocket.pdb
REMARK  282 active torsions:
REMARK  status: ('A' for Active; 'I' for Inactive)
REMARK    1  A    between atoms: _1  and  _3
REMARK    2  A    between atoms: _3  and  _4
REMARK    3  A    between atoms: _3  and  _6
REMARK    4  A    between atoms: _6  and  _7
REMARK    5  A    between atoms: _10  and  _12
REMARK    6  A    between atoms: _12  and  _13
REMARK    7  A    between atoms: _12  and  _15
REMARK    8  A    between atoms: _15  and  _16
REMARK    9  A    between atoms: _22  and  _24
REMARK   10  A    between atoms: _24  and  _25
REMARK   11  A    between atoms: _24  and  _27
REMARK   12  A    between atoms: _27  and  _28
REMARK   13  A    between atoms: _31  and  _33
REMARK   14  A    between atoms: _33  and  _34
REMARK   15  A    between atoms: _33  and  _36
REMARK   16  A    between atoms: _36  and  _37
REMARK   17  A    between atoms: _40  and  _42
REMARK   18  A    between atoms: _42  and  _43
REMARK   19  A    between atoms: _42  and  _45
REMARK   20  A    between atoms: _45  and  _46
REMARK   21  A    between atoms: _52  and  _54
REMARK   22  A    between atoms: _54  and  _55
REMARK   23  A    between atoms: _54  and  _57
REMARK   24  A    between atoms: _57  and  _58
REMARK   25  A    between atoms: _63  and  _64
REMARK   26  A    between atoms: _66  and  _68
REMARK   27  A    between atoms: _68  and  _69
REMARK   28  A    between atoms: _68  and  _71
REMARK   29  A    between atoms: _71  and  _72
REMARK   30  A    between atoms: _74  and  _76
REMARK   31  A    between atoms: _76  and  _77
REMARK   32  A    between atoms: _80  and  _82
REMARK   33  A    between atoms: _82  and  _83
REMARK   34  A    between atoms: _82  and  _85
REMARK   35  A    between atoms: _85  and  _86
REMARK   36  A    between atoms: _89  and  _91
REMARK   37  A    between atoms: _91  and  _92
REMARK   38  A    between atoms: _91  and  _94
REMARK   39  A    between atoms: _94  and  _95
REMARK   40  A    between atoms: _95  and  _96
REMARK   41  A    between atoms: _101  and  _103
REMARK   42  A    between atoms: _103  and  _104
REMARK   43  A    between atoms: _103  and  _106
REMARK   44  A    between atoms: _109  and  _111
REMARK   45  A    between atoms: _111  and  _112
REMARK   46  A    between atoms: _111  and  _114
REMARK   47  A    between atoms: _117  and  _119
REMARK   48  A    between atoms: _119  and  _120
REMARK   49  A    between atoms: _119  and  _122
REMARK   50  A    between atoms: _122  and  _123
REMARK   51  A    between atoms: _126  and  _128
REMARK   52  A    between atoms: _128  and  _129
REMARK   53  A    between atoms: _128  and  _131
REMARK   54  A    between atoms: _131  and  _132
REMARK   55  A    between atoms: _137  and  _138
REMARK   56  A    between atoms: _140  and  _142
REMARK   57  A    between atoms: _142  and  _143
REMARK   58  A    between atoms: _142  and  _145
REMARK   59  A    between atoms: _145  and  _146
REMARK   60  A    between atoms: _146  and  _147
REMARK   61  A    between atoms: _152  and  _154
REMARK   62  A    between atoms: _154  and  _155
REMARK   63  A    between atoms: _154  and  _157
REMARK   64  A    between atoms: _157  and  _158
REMARK   65  A    between atoms: _161  and  _163
REMARK   66  A    between atoms: _163  and  _164
REMARK   67  A    between atoms: _163  and  _166
REMARK   68  A    between atoms: _166  and  _167
REMARK   69  A    between atoms: _167  and  _168
REMARK   70  A    between atoms: _171  and  _173
REMARK   71  A    between atoms: _173  and  _174
REMARK   72  A    between atoms: _177  and  _179
REMARK   73  A    between atoms: _179  and  _180
REMARK   74  A    between atoms: _179  and  _182
REMARK   75  A    between atoms: _182  and  _183
REMARK   76  A    between atoms: _183  and  _184
REMARK   77  A    between atoms: _189  and  _191
REMARK   78  A    between atoms: _191  and  _192
REMARK   79  A    between atoms: _191  and  _194
REMARK   80  A    between atoms: _194  and  _195
REMARK   81  A    between atoms: _195  and  _196
REMARK   82  A    between atoms: _196  and  _197
REMARK   83  A    between atoms: _206  and  _208
REMARK   84  A    between atoms: _208  and  _209
REMARK   85  A    between atoms: _212  and  _214
REMARK   86  A    between atoms: _214  and  _215
REMARK   87  A    between atoms: _214  and  _217
REMARK   88  A    between atoms: _217  and  _218
REMARK   89  A    between atoms: _223  and  _224
REMARK   90  A    between atoms: _226  and  _228
REMARK   91  A    between atoms: _228  and  _229
REMARK   92  A    between atoms: _228  and  _231
REMARK   93  A    between atoms: _231  and  _232
REMARK   94  A    between atoms: _235  and  _237
REMARK   95  A    between atoms: _237  and  _238
REMARK   96  A    between atoms: _237  and  _240
REMARK   97  A    between atoms: _240  and  _241
REMARK   98  A    between atoms: _241  and  _242
REMARK   99  A    between atoms: _245  and  _247
REMARK  100  A    between atoms: _247  and  _248
REMARK  101  A    between atoms: _247  and  _250
REMARK  102  A    between atoms: _250  and  _251
REMARK  103  A    between atoms: _254  and  _256
REMARK  104  A    between atoms: _256  and  _257
REMARK  105  A    between atoms: _256  and  _259
REMARK  106  A    between atoms: _259  and  _260
REMARK  107  A    between atoms: _260  and  _261
REMARK  108  A    between atoms: _261  and  _262
REMARK  109  A    between atoms: _271  and  _273
REMARK  110  A    between atoms: _273  and  _274
REMARK  111  A    between atoms: _273  and  _276
REMARK  112  A    between atoms: _276  and  _277
REMARK  113  A    between atoms: _282  and  _284
REMARK  114  A    between atoms: _284  and  _285
REMARK  115  A    between atoms: _284  and  _287
REMARK  116  A    between atoms: _287  and  _288
REMARK  117  A    between atoms: _288  and  _289
REMARK  118  A    between atoms: _289  and  _290
REMARK  119  A    between atoms: _290  and  _291
REMARK  120  A    between atoms: _295  and  _297
REMARK  121  A    between atoms: _297  and  _298
REMARK  122  A    between atoms: _297  and  _300
REMARK  123  A    between atoms: _300  and  _301
REMARK  124  A    between atoms: _301  and  _302
REMARK  125  A    between atoms: _307  and  _309
REMARK  126  A    between atoms: _309  and  _310
REMARK  127  A    between atoms: _309  and  _312
REMARK  128  A    between atoms: _312  and  _313
REMARK  129  A    between atoms: _313  and  _314
REMARK  130  A    between atoms: _319  and  _321
REMARK  131  A    between atoms: _321  and  _322
REMARK  132  A    between atoms: _321  and  _324
REMARK  133  A    between atoms: _324  and  _325
REMARK  134  A    between atoms: _325  and  _326
REMARK  135  A    between atoms: _326  and  _327
REMARK  136  A    between atoms: _336  and  _338
REMARK  137  A    between atoms: _338  and  _339
REMARK  138  A    between atoms: _338  and  _341
REMARK  139  A    between atoms: _341  and  _342
REMARK  140  A    between atoms: _342  and  _343
REMARK  141  A    between atoms: _345  and  _347
REMARK  142  A    between atoms: _347  and  _348
REMARK  143  A    between atoms: _347  and  _350
REMARK  144  A    between atoms: _350  and  _351
REMARK  145  A    between atoms: _361  and  _363
REMARK  146  A    between atoms: _363  and  _364
REMARK  147  A    between atoms: _363  and  _366
REMARK  148  A    between atoms: _366  and  _367
REMARK  149  A    between atoms: _370  and  _372
REMARK  150  A    between atoms: _372  and  _373
REMARK  151  A    between atoms: _372  and  _375
REMARK  152  A    between atoms: _375  and  _376
REMARK  153  A    between atoms: _379  and  _381
REMARK  154  A    between atoms: _381  and  _382
REMARK  155  A    between atoms: _381  and  _384
REMARK  156  A    between atoms: _384  and  _385
REMARK  157  A    between atoms: _388  and  _390
REMARK  158  A    between atoms: _390  and  _391
REMARK  159  A    between atoms: _390  and  _393
REMARK  160  A    between atoms: _393  and  _394
REMARK  161  A    between atoms: _399  and  _400
REMARK  162  A    between atoms: _402  and  _404
REMARK  163  A    between atoms: _404  and  _405
REMARK  164  A    between atoms: _404  and  _407
REMARK  165  A    between atoms: _407  and  _408
REMARK  166  A    between atoms: _408  and  _409
REMARK  167  A    between atoms: _409  and  _410
REMARK  168  A    between atoms: _419  and  _421
REMARK  169  A    between atoms: _421  and  _422
REMARK  170  A    between atoms: _421  and  _424
REMARK  171  A    between atoms: _424  and  _425
REMARK  172  A    between atoms: _431  and  _433
REMARK  173  A    between atoms: _433  and  _434
REMARK  174  A    between atoms: _433  and  _436
REMARK  175  A    between atoms: _436  and  _437
REMARK  176  A    between atoms: _440  and  _442
REMARK  177  A    between atoms: _442  and  _443
REMARK  178  A    between atoms: _442  and  _445
REMARK  179  A    between atoms: _445  and  _446
REMARK  180  A    between atoms: _446  and  _447
REMARK  181  A    between atoms: _447  and  _448
REMARK  182  A    between atoms: _457  and  _459
REMARK  183  A    between atoms: _459  and  _460
REMARK  184  A    between atoms: _459  and  _462
REMARK  185  A    between atoms: _462  and  _463
REMARK  186  A    between atoms: _466  and  _468
REMARK  187  A    between atoms: _468  and  _469
REMARK  188  A    between atoms: _468  and  _471
REMARK  189  A    between atoms: _471  and  _472
REMARK  190  A    between atoms: _475  and  _477
REMARK  191  A    between atoms: _477  and  _478
REMARK  192  A    between atoms: _477  and  _480
REMARK  193  A    between atoms: _480  and  _481
REMARK  194  A    between atoms: _484  and  _486
REMARK  195  A    between atoms: _486  and  _487
REMARK  196  A    between atoms: _486  and  _489
REMARK  197  A    between atoms: _489  and  _490
REMARK  198  A    between atoms: _500  and  _502
REMARK  199  A    between atoms: _502  and  _503
REMARK  200  A    between atoms: _502  and  _505
REMARK  201  A    between atoms: _508  and  _510
REMARK  202  A    between atoms: _510  and  _511
REMARK  203  A    between atoms: _510  and  _513
REMARK  204  A    between atoms: _513  and  _514
REMARK  205  A    between atoms: _516  and  _518
REMARK  206  A    between atoms: _518  and  _519
REMARK  207  A    between atoms: _518  and  _521
REMARK  208  A    between atoms: _524  and  _526
REMARK  209  A    between atoms: _526  and  _527
REMARK  210  A    between atoms: _526  and  _529
REMARK  211  A    between atoms: _529  and  _530
REMARK  212  A    between atoms: _530  and  _531
REMARK  213  A    between atoms: _531  and  _532
REMARK  214  A    between atoms: _541  and  _543
REMARK  215  A    between atoms: _543  and  _544
REMARK  216  A    between atoms: _543  and  _546
REMARK  217  A    between atoms: _546  and  _547
REMARK  218  A    between atoms: _547  and  _548
REMARK  219  A    between atoms: _551  and  _553
REMARK  220  A    between atoms: _553  and  _554
REMARK  221  A    between atoms: _553  and  _556
REMARK  222  A    between atoms: _556  and  _557
REMARK  223  A    between atoms: _557  and  _558
REMARK  224  A    between atoms: _563  and  _565
REMARK  225  A    between atoms: _565  and  _566
REMARK  226  A    between atoms: _565  and  _568
REMARK  227  A    between atoms: _568  and  _569
REMARK  228  A    between atoms: _572  and  _574
REMARK  229  A    between atoms: _574  and  _575
REMARK  230  A    between atoms: _574  and  _577
REMARK  231  A    between atoms: _580  and  _582
REMARK  232  A    between atoms: _582  and  _583
REMARK  233  A    between atoms: _582  and  _585
REMARK  234  A    between atoms: _585  and  _586
REMARK  235  A    between atoms: _588  and  _590
REMARK  236  A    between atoms: _590  and  _591
REMARK  237  A    between atoms: _590  and  _593
REMARK  238  A    between atoms: _596  and  _598
REMARK  239  A    between atoms: _598  and  _599
REMARK  240  A    between atoms: _598  and  _601
REMARK  241  A    between atoms: _601  and  _602
REMARK  242  A    between atoms: _602  and  _603
REMARK  243  A    between atoms: _603  and  _604
REMARK  244  A    between atoms: _613  and  _615
REMARK  245  A    between atoms: _615  and  _616
REMARK  246  A    between atoms: _615  and  _618
REMARK  247  A    between atoms: _618  and  _619
REMARK  248  A    between atoms: _629  and  _631
REMARK  249  A    between atoms: _631  and  _632
REMARK  250  A    between atoms: _631  and  _634
REMARK  251  A    between atoms: _634  and  _635
REMARK  252  A    between atoms: _640  and  _641
REMARK  253  A    between atoms: _643  and  _645
REMARK  254  A    between atoms: _645  and  _646
REMARK  255  A    between atoms: _645  and  _648
REMARK  256  A    between atoms: _648  and  _649
REMARK  257  A    between atoms: _649  and  _650
REMARK  258  A    between atoms: _650  and  _651
REMARK  259  A    between atoms: _661  and  _662
REMARK  260  A    between atoms: _667  and  _669
REMARK  261  A    between atoms: _669  and  _670
REMARK  262  A    between atoms: _672  and  _674
REMARK  263  A    between atoms: _674  and  _675
REMARK  264  A    between atoms: _678  and  _679
REMARK  265  A    between atoms: _684  and  _686
REMARK  266  A    between atoms: _686  and  _687
REMARK  267  A    between atoms: _686  and  _689
REMARK  268  A    between atoms: _689  and  _690
REMARK  269  A    between atoms: _693  and  _695
REMARK  270  A    between atoms: _695  and  _696
REMARK  271  A    between atoms: _695  and  _698
REMARK  272  A    between atoms: _698  and  _699
REMARK  273  A    between atoms: _702  and  _704
REMARK  274  A    between atoms: _704  and  _705
REMARK  275  A    between atoms: _708  and  _710
REMARK  276  A    between atoms: _710  and  _711
REMARK  277  A    between atoms: _710  and  _713
REMARK  278  A    between atoms: _713  and  _714
REMARK  279  A    between atoms: _714  and  _715
REMARK  280  A    between atoms: _720  and  _722
REMARK  281  A    between atoms: _722  and  _723
REMARK  282  A    between atoms: _722  and  _725
REMARK                            x       y       z     vdW  Elec       q    Type
REMARK                         _______ _______ _______ _____ _____    ______ ____
ROOT
ATOM      1  O   HOH     1      -8.140  44.559   8.626  0.00  0.00    +0.000 OA
ENDROOT
TORSDOF 0
REMARK  Name = ../refined-set-2016/4w97/4w97_pocket.pdb
REMARK  282 active torsions:
REMARK  status: ('A' for Active; 'I' for Inactive)
REMARK    1  A    between atoms: _1  and  _3
REMARK    2  A    between atoms: _3  and  _4
REMARK    3  A    between atoms: _3  and  _6
REMARK    4  A    between atoms: _6  and  _7
REMARK    5  A    between atoms: _10  and  _12
REMARK    6  A    between atoms: _12  and  _13
REMARK    7  A    between atoms: _12  and  _15
REMARK    8  A    between atoms: _15  and  _16
REMARK    9  A    between atoms: _22  and  _24
REMARK   10  A    between atoms: _24  and  _25
REMARK   11  A    between atoms: _24  and  _27
REMARK   12  A    between atoms: _27  and  _28
REMARK   13  A    between atoms: _31  and  _33
REMARK   14  A    between atoms: _33  and  _34
REMARK   15  A    between atoms: _33  and  _36
REMARK   16  A    between atoms: _36  and  _37
REMARK   17  A    between atoms: _40  and  _42
REMARK   18  A    between atoms: _42  and  _43
REMARK   19  A    between atoms: _42  and  _45
REMARK   20  A    between atoms: _45  and  _46
REMARK   21  A    between atoms: _52  and  _54
REMARK   22  A    between atoms: _54  and  _55
REMARK   23  A    between atoms: _54  and  _57
REMARK   24  A    between atoms: _57  and  _58
REMARK   25  A    between atoms: _63  and  _64
REMARK   26  A    between atoms: _66  and  _68
REMARK   27  A    between atoms: _68  and  _69
REMARK   28  A    between atoms: _68  and  _71
REMARK   29  A    between atoms: _71  and  _72
REMARK   30  A    between atoms: _74  and  _76
REMARK   31  A    between atoms: _76  and  _77
REMARK   32  A    between atoms: _80  and  _82
REMARK   33  A    between atoms: _82  and  _83
REMARK   34  A    between atoms: _82  and  _85
REMARK   35  A    between atoms: _85  and  _86
REMARK   36  A    between atoms: _89  and  _91
REMARK   37  A    between atoms: _91  and  _92
REMARK   38  A    between atoms: _91  and  _94
REMARK   39  A    between atoms: _94  and  _95
REMARK   40  A    between atoms: _95  and  _96
REMARK   41  A    between atoms: _101  and  _103
REMARK   42  A    between atoms: _103  and  _104
REMARK   43  A    between atoms: _103  and  _106
REMARK   44  A    between atoms: _109  and  _111
REMARK   45  A    between atoms: _111  and  _112
REMARK   46  A    between atoms: _111  and  _114
REMARK   47  A    between atoms: _117  and  _119
REMARK   48  A    between atoms: _119  and  _120
REMARK   49  A    between atoms: _119  and  _122
REMARK   50  A    between atoms: _122  and  _123
REMARK   51  A    between atoms: _126  and  _128
REMARK   52  A    between atoms: _128  and  _129
REMARK   53  A    between atoms: _128  and  _131
REMARK   54  A    between atoms: _131  and  _132
REMARK   55  A    between atoms: _137  and  _138
REMARK   56  A    between atoms: _140  and  _142
REMARK   57  A    between atoms: _142  and  _143
REMARK   58  A    between atoms: _142  and  _145
REMARK   59  A    between atoms: _145  and  _146
REMARK   60  A    between atoms: _146  and  _147
REMARK   61  A    between atoms: _152  and  _154
REMARK   62  A    between atoms: _154  and  _155
REMARK   63  A    between atoms: _154  and  _157
REMARK   64  A    between atoms: _157  and  _158
REMARK   65  A    between atoms: _161  and  _163
REMARK   66  A    between atoms: _163  and  _164
REMARK   67  A    between atoms: _163  and  _166
REMARK   68  A    between atoms: _166  and  _167
REMARK   69  A    between atoms: _167  and  _168
REMARK   70  A    between atoms: _171  and  _173
REMARK   71  A    between atoms: _173  and  _174
REMARK   72  A    between atoms: _177  and  _179
REMARK   73  A    between atoms: _179  and  _180
REMARK   74  A    between atoms: _179  and  _182
REMARK   75  A    between atoms: _182  and  _183
REMARK   76  A    between atoms: _183  and  _184
REMARK   77  A    between atoms: _189  and  _191
REMARK   78  A    between atoms: _191  and  _192
REMARK   79  A    between atoms: _191  and  _194
REMARK   80  A    between atoms: _194  and  _195
REMARK   81  A    between atoms: _195  and  _196
REMARK   82  A    between atoms: _196  and  _197
REMARK   83  A    between atoms: _206  and  _208
REMARK   84  A    between atoms: _208  and  _209
REMARK   85  A    between atoms: _212  and  _214
REMARK   86  A    between atoms: _214  and  _215
REMARK   87  A    between atoms: _214  and  _217
REMARK   88  A    between atoms: _217  and  _218
REMARK   89  A    between atoms: _223  and  _224
REMARK   90  A    between atoms: _226  and  _228
REMARK   91  A    between atoms: _228  and  _229
REMARK   92  A    between atoms: _228  and  _231
REMARK   93  A    between atoms: _231  and  _232
REMARK   94  A    between atoms: _235  and  _237
REMARK   95  A    between atoms: _237  and  _238
REMARK   96  A    between atoms: _237  and  _240
REMARK   97  A    between atoms: _240  and  _241
REMARK   98  A    between atoms: _241  and  _242
REMARK   99  A    between atoms: _245  and  _247
REMARK  100  A    between atoms: _247  and  _248
REMARK  101  A    between atoms: _247  and  _250
REMARK  102  A    between atoms: _250  and  _251
REMARK  103  A    between atoms: _254  and  _256
REMARK  104  A    between atoms: _256  and  _257
REMARK  105  A    between atoms: _256  and  _259
REMARK  106  A    between atoms: _259  and  _260
REMARK  107  A    between atoms: _260  and  _261
REMARK  108  A    between atoms: _261  and  _262
REMARK  109  A    between atoms: _271  and  _273
REMARK  110  A    between atoms: _273  and  _274
REMARK  111  A    between atoms: _273  and  _276
REMARK  112  A    between atoms: _276  and  _277
REMARK  113  A    between atoms: _282  and  _284
REMARK  114  A    between atoms: _284  and  _285
REMARK  115  A    between atoms: _284  and  _287
REMARK  116  A    between atoms: _287  and  _288
REMARK  117  A    between atoms: _288  and  _289
REMARK  118  A    between atoms: _289  and  _290
REMARK  119  A    between atoms: _290  and  _291
REMARK  120  A    between atoms: _295  and  _297
REMARK  121  A    between atoms: _297  and  _298
REMARK  122  A    between atoms: _297  and  _300
REMARK  123  A    between atoms: _300  and  _301
REMARK  124  A    between atoms: _301  and  _302
REMARK  125  A    between atoms: _307  and  _309
REMARK  126  A    between atoms: _309  and  _310
REMARK  127  A    between atoms: _309  and  _312
REMARK  128  A    between atoms: _312  and  _313
REMARK  129  A    between atoms: _313  and  _314
REMARK  130  A    between atoms: _319  and  _321
REMARK  131  A    between atoms: _321  and  _322
REMARK  132  A    between atoms: _321  and  _324
REMARK  133  A    between atoms: _324  and  _325
REMARK  134  A    between atoms: _325  and  _326
REMARK  135  A    between atoms: _326  and  _327
REMARK  136  A    between atoms: _336  and  _338
REMARK  137  A    between atoms: _338  and  _339
REMARK  138  A    between atoms: _338  and  _341
REMARK  139  A    between atoms: _341  and  _342
REMARK  140  A    between atoms: _342  and  _343
REMARK  141  A    between atoms: _345  and  _347
REMARK  142  A    between atoms: _347  and  _348
REMARK  143  A    between atoms: _347  and  _350
REMARK  144  A    between atoms: _350  and  _351
REMARK  145  A    between atoms: _361  and  _363
REMARK  146  A    between atoms: _363  and  _364
REMARK  147  A    between atoms: _363  and  _366
REMARK  148  A    between atoms: _366  and  _367
REMARK  149  A    between atoms: _370  and  _372
REMARK  150  A    between atoms: _372  and  _373
REMARK  151  A    between atoms: _372  and  _375
REMARK  152  A    between atoms: _375  and  _376
REMARK  153  A    between atoms: _379  and  _381
REMARK  154  A    between atoms: _381  and  _382
REMARK  155  A    between atoms: _381  and  _384
REMARK  156  A    between atoms: _384  and  _385
REMARK  157  A    between atoms: _388  and  _390
REMARK  158  A    between atoms: _390  and  _391
REMARK  159  A    between atoms: _390  and  _393
REMARK  160  A    between atoms: _393  and  _394
REMARK  161  A    between atoms: _399  and  _400
REMARK  162  A    between atoms: _402  and  _404
REMARK  163  A    between atoms: _404  and  _405
REMARK  164  A    between atoms: _404  and  _407
REMARK  165  A    between atoms: _407  and  _408
REMARK  166  A    between atoms: _408  and  _409
REMARK  167  A    between atoms: _409  and  _410
REMARK  168  A    between atoms: _419  and  _421
REMARK  169  A    between atoms: _421  and  _422
REMARK  170  A    between atoms: _421  and  _424
REMARK  171  A    between atoms: _424  and  _425
REMARK  172  A    between atoms: _431  and  _433
REMARK  173  A    between atoms: _433  and  _434
REMARK  174  A    between atoms: _433  and  _436
REMARK  175  A    between atoms: _436  and  _437
REMARK  176  A    between atoms: _440  and  _442
REMARK  177  A    between atoms: _442  and  _443
REMARK  178  A    between atoms: _442  and  _445
REMARK  179  A    between atoms: _445  and  _446
REMARK  180  A    between atoms: _446  and  _447
REMARK  181  A    between atoms: _447  and  _448
REMARK  182  A    between atoms: _457  and  _459
REMARK  183  A    between atoms: _459  and  _460
REMARK  184  A    between atoms: _459  and  _462
REMARK  185  A    between atoms: _462  and  _463
REMARK  186  A    between atoms: _466  and  _468
REMARK  187  A    between atoms: _468  and  _469
REMARK  188  A    between atoms: _468  and  _471
REMARK  189  A    between atoms: _471  and  _472
REMARK  190  A    between atoms: _475  and  _477
REMARK  191  A    between atoms: _477  and  _478
REMARK  192  A    between atoms: _477  and  _480
REMARK  193  A    between atoms: _480  and  _481
REMARK  194  A    between atoms: _484  and  _486
REMARK  195  A    between atoms: _486  and  _487
REMARK  196  A    between atoms: _486  and  _489
REMARK  197  A    between atoms: _489  and  _490
REMARK  198  A    between atoms: _500  and  _502
REMARK  199  A    between atoms: _502  and  _503
REMARK  200  A    between atoms: _502  and  _505
REMARK  201  A    between atoms: _508  and  _510
REMARK  202  A    between atoms: _510  and  _511
REMARK  203  A    between atoms: _510  and  _513
REMARK  204  A    between atoms: _513  and  _514
REMARK  205  A    between atoms: _516  and  _518
REMARK  206  A    between atoms: _518  and  _519
REMARK  207  A    between atoms: _518  and  _521
REMARK  208  A    between atoms: _524  and  _526
REMARK  209  A    between atoms: _526  and  _527
REMARK  210  A    between atoms: _526  and  _529
REMARK  211  A    between atoms: _529  and  _530
REMARK  212  A    between atoms: _530  and  _531
REMARK  213  A    between atoms: _531  and  _532
REMARK  214  A    between atoms: _541  and  _543
REMARK  215  A    between atoms: _543  and  _544
REMARK  216  A    between atoms: _543  and  _546
REMARK  217  A    between atoms: _546  and  _547
REMARK  218  A    between atoms: _547  and  _548
REMARK  219  A    between atoms: _551  and  _553
REMARK  220  A    between atoms: _553  and  _554
REMARK  221  A    between atoms: _553  and  _556
REMARK  222  A    between atoms: _556  and  _557
REMARK  223  A    between atoms: _557  and  _558
REMARK  224  A    between atoms: _563  and  _565
REMARK  225  A    between atoms: _565  and  _566
REMARK  226  A    between atoms: _565  and  _568
REMARK  227  A    between atoms: _568  and  _569
REMARK  228  A    between atoms: _572  and  _574
REMARK  229  A    between atoms: _574  and  _575
REMARK  230  A    between atoms: _574  and  _577
REMARK  231  A    between atoms: _580  and  _582
REMARK  232  A    between atoms: _582  and  _583
REMARK  233  A    between atoms: _582  and  _585
REMARK  234  A    between atoms: _585  and  _586
REMARK  235  A    between atoms: _588  and  _590
REMARK  236  A    between atoms: _590  and  _591
REMARK  237  A    between atoms: _590  and  _593
REMARK  238  A    between atoms: _596  and  _598
REMARK  239  A    between atoms: _598  and  _599
REMARK  240  A    between atoms: _598  and  _601
REMARK  241  A    between atoms: _601  and  _602
REMARK  242  A    between atoms: _602  and  _603
REMARK  243  A    between atoms: _603  and  _604
REMARK  244  A    between atoms: _613  and  _615
REMARK  245  A    between atoms: _615  and  _616
REMARK  246  A    between atoms: _615  and  _618
REMARK  247  A    between atoms: _618  and  _619
REMARK  248  A    between atoms: _629  and  _631
REMARK  249  A    between atoms: _631  and  _632
REMARK  250  A    between atoms: _631  and  _634
REMARK  251  A    between atoms: _634  and  _635
REMARK  252  A    between atoms: _640  and  _641
REMARK  253  A    between atoms: _643  and  _645
REMARK  254  A    between atoms: _645  and  _646
REMARK  255  A    between atoms: _645  and  _648
REMARK  256  A    between atoms: _648  and  _649
REMARK  257  A    between atoms: _649  and  _650
REMARK  258  A    between atoms: _650  and  _651
REMARK  259  A    between atoms: _661  and  _662
REMARK  260  A    between atoms: _667  and  _669
REMARK  261  A    between atoms: _669  and  _670
REMARK  262  A    between atoms: _672  and  _674
REMARK  263  A    between atoms: _674  and  _675
REMARK  264  A    between atoms: _678  and  _679
REMARK  265  A    between atoms: _684  and  _686
REMARK  266  A    between atoms: _686  and  _687
REMARK  267  A    between atoms: _686  and  _689
REMARK  268  A    between atoms: _689  and  _690
REMARK  269  A    between atoms: _693  and  _695
REMARK  270  A    between atoms: _695  and  _696
REMARK  271  A    between atoms: _695  and  _698
REMARK  272  A    between atoms: _698  and  _699
REMARK  273  A    between atoms: _702  and  _704
REMARK  274  A    between atoms: _704  and  _705
REMARK  275  A    between atoms: _708  and  _710
REMARK  276  A    between atoms: _710  and  _711
REMARK  277  A    between atoms: _710  and  _713
REMARK  278  A    between atoms: _713  and  _714
REMARK  279  A    between atoms: _714  and  _715
REMARK  280  A    between atoms: _720  and  _722
REMARK  281  A    between atoms: _722  and  _723
REMARK  282  A    between atoms: _722  and  _725
REMARK                            x       y       z     vdW  Elec       q    Type
REMARK                         _______ _______ _______ _____ _____    ______ ____
ROOT
ATOM      1  O   HOH     1      -3.266  43.280   6.917  0.00  0.00    +0.000 OA
ENDROOT
TORSDOF 0
REMARK  Name = ../refined-set-2016/4w97/4w97_pocket.pdb
REMARK  282 active torsions:
REMARK  status: ('A' for Active; 'I' for Inactive)
REMARK    1  A    between atoms: _1  and  _3
REMARK    2  A    between atoms: _3  and  _4
REMARK    3  A    between atoms: _3  and  _6
REMARK    4  A    between atoms: _6  and  _7
REMARK    5  A    between atoms: _10  and  _12
REMARK    6  A    between atoms: _12  and  _13
REMARK    7  A    between atoms: _12  and  _15
REMARK    8  A    between atoms: _15  and  _16
REMARK    9  A    between atoms: _22  and  _24
REMARK   10  A    between atoms: _24  and  _25
REMARK   11  A    between atoms: _24  and  _27
REMARK   12  A    between atoms: _27  and  _28
REMARK   13  A    between atoms: _31  and  _33
REMARK   14  A    between atoms: _33  and  _34
REMARK   15  A    between atoms: _33  and  _36
REMARK   16  A    between atoms: _36  and  _37
REMARK   17  A    between atoms: _40  and  _42
REMARK   18  A    between atoms: _42  and  _43
REMARK   19  A    between atoms: _42  and  _45
REMARK   20  A    between atoms: _45  and  _46
REMARK   21  A    between atoms: _52  and  _54
REMARK   22  A    between atoms: _54  and  _55
REMARK   23  A    between atoms: _54  and  _57
REMARK   24  A    between atoms: _57  and  _58
REMARK   25  A    between atoms: _63  and  _64
REMARK   26  A    between atoms: _66  and  _68
REMARK   27  A    between atoms: _68  and  _69
REMARK   28  A    between atoms: _68  and  _71
REMARK   29  A    between atoms: _71  and  _72
REMARK   30  A    between atoms: _74  and  _76
REMARK   31  A    between atoms: _76  and  _77
REMARK   32  A    between atoms: _80  and  _82
REMARK   33  A    between atoms: _82  and  _83
REMARK   34  A    between atoms: _82  and  _85
REMARK   35  A    between atoms: _85  and  _86
REMARK   36  A    between atoms: _89  and  _91
REMARK   37  A    between atoms: _91  and  _92
REMARK   38  A    between atoms: _91  and  _94
REMARK   39  A    between atoms: _94  and  _95
REMARK   40  A    between atoms: _95  and  _96
REMARK   41  A    between atoms: _101  and  _103
REMARK   42  A    between atoms: _103  and  _104
REMARK   43  A    between atoms: _103  and  _106
REMARK   44  A    between atoms: _109  and  _111
REMARK   45  A    between atoms: _111  and  _112
REMARK   46  A    between atoms: _111  and  _114
REMARK   47  A    between atoms: _117  and  _119
REMARK   48  A    between atoms: _119  and  _120
REMARK   49  A    between atoms: _119  and  _122
REMARK   50  A    between atoms: _122  and  _123
REMARK   51  A    between atoms: _126  and  _128
REMARK   52  A    between atoms: _128  and  _129
REMARK   53  A    between atoms: _128  and  _131
REMARK   54  A    between atoms: _131  and  _132
REMARK   55  A    between atoms: _137  and  _138
REMARK   56  A    between atoms: _140  and  _142
REMARK   57  A    between atoms: _142  and  _143
REMARK   58  A    between atoms: _142  and  _145
REMARK   59  A    between atoms: _145  and  _146
REMARK   60  A    between atoms: _146  and  _147
REMARK   61  A    between atoms: _152  and  _154
REMARK   62  A    between atoms: _154  and  _155
REMARK   63  A    between atoms: _154  and  _157
REMARK   64  A    between atoms: _157  and  _158
REMARK   65  A    between atoms: _161  and  _163
REMARK   66  A    between atoms: _163  and  _164
REMARK   67  A    between atoms: _163  and  _166
REMARK   68  A    between atoms: _166  and  _167
REMARK   69  A    between atoms: _167  and  _168
REMARK   70  A    between atoms: _171  and  _173
REMARK   71  A    between atoms: _173  and  _174
REMARK   72  A    between atoms: _177  and  _179
REMARK   73  A    between atoms: _179  and  _180
REMARK   74  A    between atoms: _179  and  _182
REMARK   75  A    between atoms: _182  and  _183
REMARK   76  A    between atoms: _183  and  _184
REMARK   77  A    between atoms: _189  and  _191
REMARK   78  A    between atoms: _191  and  _192
REMARK   79  A    between atoms: _191  and  _194
REMARK   80  A    between atoms: _194  and  _195
REMARK   81  A    between atoms: _195  and  _196
REMARK   82  A    between atoms: _196  and  _197
REMARK   83  A    between atoms: _206  and  _208
REMARK   84  A    between atoms: _208  and  _209
REMARK   85  A    between atoms: _212  and  _214
REMARK   86  A    between atoms: _214  and  _215
REMARK   87  A    between atoms: _214  and  _217
REMARK   88  A    between atoms: _217  and  _218
REMARK   89  A    between atoms: _223  and  _224
REMARK   90  A    between atoms: _226  and  _228
REMARK   91  A    between atoms: _228  and  _229
REMARK   92  A    between atoms: _228  and  _231
REMARK   93  A    between atoms: _231  and  _232
REMARK   94  A    between atoms: _235  and  _237
REMARK   95  A    between atoms: _237  and  _238
REMARK   96  A    between atoms: _237  and  _240
REMARK   97  A    between atoms: _240  and  _241
REMARK   98  A    between atoms: _241  and  _242
REMARK   99  A    between atoms: _245  and  _247
REMARK  100  A    between atoms: _247  and  _248
REMARK  101  A    between atoms: _247  and  _250
REMARK  102  A    between atoms: _250  and  _251
REMARK  103  A    between atoms: _254  and  _256
REMARK  104  A    between atoms: _256  and  _257
REMARK  105  A    between atoms: _256  and  _259
REMARK  106  A    between atoms: _259  and  _260
REMARK  107  A    between atoms: _260  and  _261
REMARK  108  A    between atoms: _261  and  _262
REMARK  109  A    between atoms: _271  and  _273
REMARK  110  A    between atoms: _273  and  _274
REMARK  111  A    between atoms: _273  and  _276
REMARK  112  A    between atoms: _276  and  _277
REMARK  113  A    between atoms: _282  and  _284
REMARK  114  A    between atoms: _284  and  _285
REMARK  115  A    between atoms: _284  and  _287
REMARK  116  A    between atoms: _287  and  _288
REMARK  117  A    between atoms: _288  and  _289
REMARK  118  A    between atoms: _289  and  _290
REMARK  119  A    between atoms: _290  and  _291
REMARK  120  A    between atoms: _295  and  _297
REMARK  121  A    between atoms: _297  and  _298
REMARK  122  A    between atoms: _297  and  _300
REMARK  123  A    between atoms: _300  and  _301
REMARK  124  A    between atoms: _301  and  _302
REMARK  125  A    between atoms: _307  and  _309
REMARK  126  A    between atoms: _309  and  _310
REMARK  127  A    between atoms: _309  and  _312
REMARK  128  A    between atoms: _312  and  _313
REMARK  129  A    between atoms: _313  and  _314
REMARK  130  A    between atoms: _319  and  _321
REMARK  131  A    between atoms: _321  and  _322
REMARK  132  A    between atoms: _321  and  _324
REMARK  133  A    between atoms: _324  and  _325
REMARK  134  A    between atoms: _325  and  _326
REMARK  135  A    between atoms: _326  and  _327
REMARK  136  A    between atoms: _336  and  _338
REMARK  137  A    between atoms: _338  and  _339
REMARK  138  A    between atoms: _338  and  _341
REMARK  139  A    between atoms: _341  and  _342
REMARK  140  A    between atoms: _342  and  _343
REMARK  141  A    between atoms: _345  and  _347
REMARK  142  A    between atoms: _347  and  _348
REMARK  143  A    between atoms: _347  and  _350
REMARK  144  A    between atoms: _350  and  _351
REMARK  145  A    between atoms: _361  and  _363
REMARK  146  A    between atoms: _363  and  _364
REMARK  147  A    between atoms: _363  and  _366
REMARK  148  A    between atoms: _366  and  _367
REMARK  149  A    between atoms: _370  and  _372
REMARK  150  A    between atoms: _372  and  _373
REMARK  151  A    between atoms: _372  and  _375
REMARK  152  A    between atoms: _375  and  _376
REMARK  153  A    between atoms: _379  and  _381
REMARK  154  A    between atoms: _381  and  _382
REMARK  155  A    between atoms: _381  and  _384
REMARK  156  A    between atoms: _384  and  _385
REMARK  157  A    between atoms: _388  and  _390
REMARK  158  A    between atoms: _390  and  _391
REMARK  159  A    between atoms: _390  and  _393
REMARK  160  A    between atoms: _393  and  _394
REMARK  161  A    between atoms: _399  and  _400
REMARK  162  A    between atoms: _402  and  _404
REMARK  163  A    between atoms: _404  and  _405
REMARK  164  A    between atoms: _404  and  _407
REMARK  165  A    between atoms: _407  and  _408
REMARK  166  A    between atoms: _408  and  _409
REMARK  167  A    between atoms: _409  and  _410
REMARK  168  A    between atoms: _419  and  _421
REMARK  169  A    between atoms: _421  and  _422
REMARK  170  A    between atoms: _421  and  _424
REMARK  171  A    between atoms: _424  and  _425
REMARK  172  A    between atoms: _431  and  _433
REMARK  173  A    between atoms: _433  and  _434
REMARK  174  A    between atoms: _433  and  _436
REMARK  175  A    between atoms: _436  and  _437
REMARK  176  A    between atoms: _440  and  _442
REMARK  177  A    between atoms: _442  and  _443
REMARK  178  A    between atoms: _442  and  _445
REMARK  179  A    between atoms: _445  and  _446
REMARK  180  A    between atoms: _446  and  _447
REMARK  181  A    between atoms: _447  and  _448
REMARK  182  A    between atoms: _457  and  _459
REMARK  183  A    between atoms: _459  and  _460
REMARK  184  A    between atoms: _459  and  _462
REMARK  185  A    between atoms: _462  and  _463
REMARK  186  A    between atoms: _466  and  _468
REMARK  187  A    between atoms: _468  and  _469
REMARK  188  A    between atoms: _468  and  _471
REMARK  189  A    between atoms: _471  and  _472
REMARK  190  A    between atoms: _475  and  _477
REMARK  191  A    between atoms: _477  and  _478
REMARK  192  A    between atoms: _477  and  _480
REMARK  193  A    between atoms: _480  and  _481
REMARK  194  A    between atoms: _484  and  _486
REMARK  195  A    between atoms: _486  and  _487
REMARK  196  A    between atoms: _486  and  _489
REMARK  197  A    between atoms: _489  and  _490
REMARK  198  A    between atoms: _500  and  _502
REMARK  199  A    between atoms: _502  and  _503
REMARK  200  A    between atoms: _502  and  _505
REMARK  201  A    between atoms: _508  and  _510
REMARK  202  A    between atoms: _510  and  _511
REMARK  203  A    between atoms: _510  and  _513
REMARK  204  A    between atoms: _513  and  _514
REMARK  205  A    between atoms: _516  and  _518
REMARK  206  A    between atoms: _518  and  _519
REMARK  207  A    between atoms: _518  and  _521
REMARK  208  A    between atoms: _524  and  _526
REMARK  209  A    between atoms: _526  and  _527
REMARK  210  A    between atoms: _526  and  _529
REMARK  211  A    between atoms: _529  and  _530
REMARK  212  A    between atoms: _530  and  _531
REMARK  213  A    between atoms: _531  and  _532
REMARK  214  A    between atoms: _541  and  _543
REMARK  215  A    between atoms: _543  and  _544
REMARK  216  A    between atoms: _543  and  _546
REMARK  217  A    between atoms: _546  and  _547
REMARK  218  A    between atoms: _547  and  _548
REMARK  219  A    between atoms: _551  and  _553
REMARK  220  A    between atoms: _553  and  _554
REMARK  221  A    between atoms: _553  and  _556
REMARK  222  A    between atoms: _556  and  _557
REMARK  223  A    between atoms: _557  and  _558
REMARK  224  A    between atoms: _563  and  _565
REMARK  225  A    between atoms: _565  and  _566
REMARK  226  A    between atoms: _565  and  _568
REMARK  227  A    between atoms: _568  and  _569
REMARK  228  A    between atoms: _572  and  _574
REMARK  229  A    between atoms: _574  and  _575
REMARK  230  A    between atoms: _574  and  _577
REMARK  231  A    between atoms: _580  and  _582
REMARK  232  A    between atoms: _582  and  _583
REMARK  233  A    between atoms: _582  and  _585
REMARK  234  A    between atoms: _585  and  _586
REMARK  235  A    between atoms: _588  and  _590
REMARK  236  A    between atoms: _590  and  _591
REMARK  237  A    between atoms: _590  and  _593
REMARK  238  A    between atoms: _596  and  _598
REMARK  239  A    between atoms: _598  and  _599
REMARK  240  A    between atoms: _598  and  _601
REMARK  241  A    between atoms: _601  and  _602
REMARK  242  A    between atoms: _602  and  _603
REMARK  243  A    between atoms: _603  and  _604
REMARK  244  A    between atoms: _613  and  _615
REMARK  245  A    between atoms: _615  and  _616
REMARK  246  A    between atoms: _615  and  _618
REMARK  247  A    between atoms: _618  and  _619
REMARK  248  A    between atoms: _629  and  _631
REMARK  249  A    between atoms: _631  and  _632
REMARK  250  A    between atoms: _631  and  _634
REMARK  251  A    between atoms: _634  and  _635
REMARK  252  A    between atoms: _640  and  _641
REMARK  253  A    between atoms: _643  and  _645
REMARK  254  A    between atoms: _645  and  _646
REMARK  255  A    between atoms: _645  and  _648
REMARK  256  A    between atoms: _648  and  _649
REMARK  257  A    between atoms: _649  and  _650
REMARK  258  A    between atoms: _650  and  _651
REMARK  259  A    between atoms: _661  and  _662
REMARK  260  A    between atoms: _667  and  _669
REMARK  261  A    between atoms: _669  and  _670
REMARK  262  A    between atoms: _672  and  _674
REMARK  263  A    between atoms: _674  and  _675
REMARK  264  A    between atoms: _678  and  _679
REMARK  265  A    between atoms: _684  and  _686
REMARK  266  A    between atoms: _686  and  _687
REMARK  267  A    between atoms: _686  and  _689
REMARK  268  A    between atoms: _689  and  _690
REMARK  269  A    between atoms: _693  and  _695
REMARK  270  A    between atoms: _695  and  _696
REMARK  271  A    between atoms: _695  and  _698
REMARK  272  A    between atoms: _698  and  _699
REMARK  273  A    between atoms: _702  and  _704
REMARK  274  A    between atoms: _704  and  _705
REMARK  275  A    between atoms: _708  and  _710
REMARK  276  A    between atoms: _710  and  _711
REMARK  277  A    between atoms: _710  and  _713
REMARK  278  A    between atoms: _713  and  _714
REMARK  279  A    between atoms: _714  and  _715
REMARK  280  A    between atoms: _720  and  _722
REMARK  281  A    between atoms: _722  and  _723
REMARK  282  A    between atoms: _722  and  _725
REMARK                            x       y       z     vdW  Elec       q    Type
REMARK                         _______ _______ _______ _____ _____    ______ ____
ROOT
ATOM      1  O   HOH     1     -11.792  33.157  -2.070  0.00  0.00    +0.000 OA
ENDROOT
TORSDOF 0
REMARK  Name = ../refined-set-2016/4w97/4w97_pocket.pdb
REMARK  282 active torsions:
REMARK  status: ('A' for Active; 'I' for Inactive)
REMARK    1  A    between atoms: _1  and  _3
REMARK    2  A    between atoms: _3  and  _4
REMARK    3  A    between atoms: _3  and  _6
REMARK    4  A    between atoms: _6  and  _7
REMARK    5  A    between atoms: _10  and  _12
REMARK    6  A    between atoms: _12  and  _13
REMARK    7  A    between atoms: _12  and  _15
REMARK    8  A    between atoms: _15  and  _16
REMARK    9  A    between atoms: _22  and  _24
REMARK   10  A    between atoms: _24  and  _25
REMARK   11  A    between atoms: _24  and  _27
REMARK   12  A    between atoms: _27  and  _28
REMARK   13  A    between atoms: _31  and  _33
REMARK   14  A    between atoms: _33  and  _34
REMARK   15  A    between atoms: _33  and  _36
REMARK   16  A    between atoms: _36  and  _37
REMARK   17  A    between atoms: _40  and  _42
REMARK   18  A    between atoms: _42  and  _43
REMARK   19  A    between atoms: _42  and  _45
REMARK   20  A    between atoms: _45  and  _46
REMARK   21  A    between atoms: _52  and  _54
REMARK   22  A    between atoms: _54  and  _55
REMARK   23  A    between atoms: _54  and  _57
REMARK   24  A    between atoms: _57  and  _58
REMARK   25  A    between atoms: _63  and  _64
REMARK   26  A    between atoms: _66  and  _68
REMARK   27  A    between atoms: _68  and  _69
REMARK   28  A    between atoms: _68  and  _71
REMARK   29  A    between atoms: _71  and  _72
REMARK   30  A    between atoms: _74  and  _76
REMARK   31  A    between atoms: _76  and  _77
REMARK   32  A    between atoms: _80  and  _82
REMARK   33  A    between atoms: _82  and  _83
REMARK   34  A    between atoms: _82  and  _85
REMARK   35  A    between atoms: _85  and  _86
REMARK   36  A    between atoms: _89  and  _91
REMARK   37  A    between atoms: _91  and  _92
REMARK   38  A    between atoms: _91  and  _94
REMARK   39  A    between atoms: _94  and  _95
REMARK   40  A    between atoms: _95  and  _96
REMARK   41  A    between atoms: _101  and  _103
REMARK   42  A    between atoms: _103  and  _104
REMARK   43  A    between atoms: _103  and  _106
REMARK   44  A    between atoms: _109  and  _111
REMARK   45  A    between atoms: _111  and  _112
REMARK   46  A    between atoms: _111  and  _114
REMARK   47  A    between atoms: _117  and  _119
REMARK   48  A    between atoms: _119  and  _120
REMARK   49  A    between atoms: _119  and  _122
REMARK   50  A    between atoms: _122  and  _123
REMARK   51  A    between atoms: _126  and  _128
REMARK   52  A    between atoms: _128  and  _129
REMARK   53  A    between atoms: _128  and  _131
REMARK   54  A    between atoms: _131  and  _132
REMARK   55  A    between atoms: _137  and  _138
REMARK   56  A    between atoms: _140  and  _142
REMARK   57  A    between atoms: _142  and  _143
REMARK   58  A    between atoms: _142  and  _145
REMARK   59  A    between atoms: _145  and  _146
REMARK   60  A    between atoms: _146  and  _147
REMARK   61  A    between atoms: _152  and  _154
REMARK   62  A    between atoms: _154  and  _155
REMARK   63  A    between atoms: _154  and  _157
REMARK   64  A    between atoms: _157  and  _158
REMARK   65  A    between atoms: _161  and  _163
REMARK   66  A    between atoms: _163  and  _164
REMARK   67  A    between atoms: _163  and  _166
REMARK   68  A    between atoms: _166  and  _167
REMARK   69  A    between atoms: _167  and  _168
REMARK   70  A    between atoms: _171  and  _173
REMARK   71  A    between atoms: _173  and  _174
REMARK   72  A    between atoms: _177  and  _179
REMARK   73  A    between atoms: _179  and  _180
REMARK   74  A    between atoms: _179  and  _182
REMARK   75  A    between atoms: _182  and  _183
REMARK   76  A    between atoms: _183  and  _184
REMARK   77  A    between atoms: _189  and  _191
REMARK   78  A    between atoms: _191  and  _192
REMARK   79  A    between atoms: _191  and  _194
REMARK   80  A    between atoms: _194  and  _195
REMARK   81  A    between atoms: _195  and  _196
REMARK   82  A    between atoms: _196  and  _197
REMARK   83  A    between atoms: _206  and  _208
REMARK   84  A    between atoms: _208  and  _209
REMARK   85  A    between atoms: _212  and  _214
REMARK   86  A    between atoms: _214  and  _215
REMARK   87  A    between atoms: _214  and  _217
REMARK   88  A    between atoms: _217  and  _218
REMARK   89  A    between atoms: _223  and  _224
REMARK   90  A    between atoms: _226  and  _228
REMARK   91  A    between atoms: _228  and  _229
REMARK   92  A    between atoms: _228  and  _231
REMARK   93  A    between atoms: _231  and  _232
REMARK   94  A    between atoms: _235  and  _237
REMARK   95  A    between atoms: _237  and  _238
REMARK   96  A    between atoms: _237  and  _240
REMARK   97  A    between atoms: _240  and  _241
REMARK   98  A    between atoms: _241  and  _242
REMARK   99  A    between atoms: _245  and  _247
REMARK  100  A    between atoms: _247  and  _248
REMARK  101  A    between atoms: _247  and  _250
REMARK  102  A    between atoms: _250  and  _251
REMARK  103  A    between atoms: _254  and  _256
REMARK  104  A    between atoms: _256  and  _257
REMARK  105  A    between atoms: _256  and  _259
REMARK  106  A    between atoms: _259  and  _260
REMARK  107  A    between atoms: _260  and  _261
REMARK  108  A    between atoms: _261  and  _262
REMARK  109  A    between atoms: _271  and  _273
REMARK  110  A    between atoms: _273  and  _274
REMARK  111  A    between atoms: _273  and  _276
REMARK  112  A    between atoms: _276  and  _277
REMARK  113  A    between atoms: _282  and  _284
REMARK  114  A    between atoms: _284  and  _285
REMARK  115  A    between atoms: _284  and  _287
REMARK  116  A    between atoms: _287  and  _288
REMARK  117  A    between atoms: _288  and  _289
REMARK  118  A    between atoms: _289  and  _290
REMARK  119  A    between atoms: _290  and  _291
REMARK  120  A    between atoms: _295  and  _297
REMARK  121  A    between atoms: _297  and  _298
REMARK  122  A    between atoms: _297  and  _300
REMARK  123  A    between atoms: _300  and  _301
REMARK  124  A    between atoms: _301  and  _302
REMARK  125  A    between atoms: _307  and  _309
REMARK  126  A    between atoms: _309  and  _310
REMARK  127  A    between atoms: _309  and  _312
REMARK  128  A    between atoms: _312  and  _313
REMARK  129  A    between atoms: _313  and  _314
REMARK  130  A    between atoms: _319  and  _321
REMARK  131  A    between atoms: _321  and  _322
REMARK  132  A    between atoms: _321  and  _324
REMARK  133  A    between atoms: _324  and  _325
REMARK  134  A    between atoms: _325  and  _326
REMARK  135  A    between atoms: _326  and  _327
REMARK  136  A    between atoms: _336  and  _338
REMARK  137  A    between atoms: _338  and  _339
REMARK  138  A    between atoms: _338  and  _341
REMARK  139  A    between atoms: _341  and  _342
REMARK  140  A    between atoms: _342  and  _343
REMARK  141  A    between atoms: _345  and  _347
REMARK  142  A    between atoms: _347  and  _348
REMARK  143  A    between atoms: _347  and  _350
REMARK  144  A    between atoms: _350  and  _351
REMARK  145  A    between atoms: _361  and  _363
REMARK  146  A    between atoms: _363  and  _364
REMARK  147  A    between atoms: _363  and  _366
REMARK  148  A    between atoms: _366  and  _367
REMARK  149  A    between atoms: _370  and  _372
REMARK  150  A    between atoms: _372  and  _373
REMARK  151  A    between atoms: _372  and  _375
REMARK  152  A    between atoms: _375  and  _376
REMARK  153  A    between atoms: _379  and  _381
REMARK  154  A    between atoms: _381  and  _382
REMARK  155  A    between atoms: _381  and  _384
REMARK  156  A    between atoms: _384  and  _385
REMARK  157  A    between atoms: _388  and  _390
REMARK  158  A    between atoms: _390  and  _391
REMARK  159  A    between atoms: _390  and  _393
REMARK  160  A    between atoms: _393  and  _394
REMARK  161  A    between atoms: _399  and  _400
REMARK  162  A    between atoms: _402  and  _404
REMARK  163  A    between atoms: _404  and  _405
REMARK  164  A    between atoms: _404  and  _407
REMARK  165  A    between atoms: _407  and  _408
REMARK  166  A    between atoms: _408  and  _409
REMARK  167  A    between atoms: _409  and  _410
REMARK  168  A    between atoms: _419  and  _421
REMARK  169  A    between atoms: _421  and  _422
REMARK  170  A    between atoms: _421  and  _424
REMARK  171  A    between atoms: _424  and  _425
REMARK  172  A    between atoms: _431  and  _433
REMARK  173  A    between atoms: _433  and  _434
REMARK  174  A    between atoms: _433  and  _436
REMARK  175  A    between atoms: _436  and  _437
REMARK  176  A    between atoms: _440  and  _442
REMARK  177  A    between atoms: _442  and  _443
REMARK  178  A    between atoms: _442  and  _445
REMARK  179  A    between atoms: _445  and  _446
REMARK  180  A    between atoms: _446  and  _447
REMARK  181  A    between atoms: _447  and  _448
REMARK  182  A    between atoms: _457  and  _459
REMARK  183  A    between atoms: _459  and  _460
REMARK  184  A    between atoms: _459  and  _462
REMARK  185  A    between atoms: _462  and  _463
REMARK  186  A    between atoms: _466  and  _468
REMARK  187  A    between atoms: _468  and  _469
REMARK  188  A    between atoms: _468  and  _471
REMARK  189  A    between atoms: _471  and  _472
REMARK  190  A    between atoms: _475  and  _477
REMARK  191  A    between atoms: _477  and  _478
REMARK  192  A    between atoms: _477  and  _480
REMARK  193  A    between atoms: _480  and  _481
REMARK  194  A    between atoms: _484  and  _486
REMARK  195  A    between atoms: _486  and  _487
REMARK  196  A    between atoms: _486  and  _489
REMARK  197  A    between atoms: _489  and  _490
REMARK  198  A    between atoms: _500  and  _502
REMARK  199  A    between atoms: _502  and  _503
REMARK  200  A    between atoms: _502  and  _505
REMARK  201  A    between atoms: _508  and  _510
REMARK  202  A    between atoms: _510  and  _511
REMARK  203  A    between atoms: _510  and  _513
REMARK  204  A    between atoms: _513  and  _514
REMARK  205  A    between atoms: _516  and  _518
REMARK  206  A    between atoms: _518  and  _519
REMARK  207  A    between atoms: _518  and  _521
REMARK  208  A    between atoms: _524  and  _526
REMARK  209  A    between atoms: _526  and  _527
REMARK  210  A    between atoms: _526  and  _529
REMARK  211  A    between atoms: _529  and  _530
REMARK  212  A    between atoms: _530  and  _531
REMARK  213  A    between atoms: _531  and  _532
REMARK  214  A    between atoms: _541  and  _543
REMARK  215  A    between atoms: _543  and  _544
REMARK  216  A    between atoms: _543  and  _546
REMARK  217  A    between atoms: _546  and  _547
REMARK  218  A    between atoms: _547  and  _548
REMARK  219  A    between atoms: _551  and  _553
REMARK  220  A    between atoms: _553  and  _554
REMARK  221  A    between atoms: _553  and  _556
REMARK  222  A    between atoms: _556  and  _557
REMARK  223  A    between atoms: _557  and  _558
REMARK  224  A    between atoms: _563  and  _565
REMARK  225  A    between atoms: _565  and  _566
REMARK  226  A    between atoms: _565  and  _568
REMARK  227  A    between atoms: _568  and  _569
REMARK  228  A    between atoms: _572  and  _574
REMARK  229  A    between atoms: _574  and  _575
REMARK  230  A    between atoms: _574  and  _577
REMARK  231  A    between atoms: _580  and  _582
REMARK  232  A    between atoms: _582  and  _583
REMARK  233  A    between atoms: _582  and  _585
REMARK  234  A    between atoms: _585  and  _586
REMARK  235  A    between atoms: _588  and  _590
REMARK  236  A    between atoms: _590  and  _591
REMARK  237  A    between atoms: _590  and  _593
REMARK  238  A    between atoms: _596  and  _598
REMARK  239  A    between atoms: _598  and  _599
REMARK  240  A    between atoms: _598  and  _601
REMARK  241  A    between atoms: _601  and  _602
REMARK  242  A    between atoms: _602  and  _603
REMARK  243  A    between atoms: _603  and  _604
REMARK  244  A    between atoms: _613  and  _615
REMARK  245  A    between atoms: _615  and  _616
REMARK  246  A    between atoms: _615  and  _618
REMARK  247  A    between atoms: _618  and  _619
REMARK  248  A    between atoms: _629  and  _631
REMARK  249  A    between atoms: _631  and  _632
REMARK  250  A    between atoms: _631  and  _634
REMARK  251  A    between atoms: _634  and  _635
REMARK  252  A    between atoms: _640  and  _641
REMARK  253  A    between atoms: _643  and  _645
REMARK  254  A    between atoms: _645  and  _646
REMARK  255  A    between atoms: _645  and  _648
REMARK  256  A    between atoms: _648  and  _649
REMARK  257  A    between atoms: _649  and  _650
REMARK  258  A    between atoms: _650  and  _651
REMARK  259  A    between atoms: _661  and  _662
REMARK  260  A    between atoms: _667  and  _669
REMARK  261  A    between atoms: _669  and  _670
REMARK  262  A    between atoms: _672  and  _674
REMARK  263  A    between atoms: _674  and  _675
REMARK  264  A    between atoms: _678  and  _679
REMARK  265  A    between atoms: _684  and  _686
REMARK  266  A    between atoms: _686  and  _687
REMARK  267  A    between atoms: _686  and  _689
REMARK  268  A    between atoms: _689  and  _690
REMARK  269  A    between atoms: _693  and  _695
REMARK  270  A    between atoms: _695  and  _696
REMARK  271  A    between atoms: _695  and  _698
REMARK  272  A    between atoms: _698  and  _699
REMARK  273  A    between atoms: _702  and  _704
REMARK  274  A    between atoms: _704  and  _705
REMARK  275  A    between atoms: _708  and  _710
REMARK  276  A    between atoms: _710  and  _711
REMARK  277  A    between atoms: _710  and  _713
REMARK  278  A    between atoms: _713  and  _714
REMARK  279  A    between atoms: _714  and  _715
REMARK  280  A    between atoms: _720  and  _722
REMARK  281  A    between atoms: _722  and  _723
REMARK  282  A    between atoms: _722  and  _725
REMARK                            x       y       z     vdW  Elec       q    Type
REMARK                         _______ _______ _______ _____ _____    ______ ____
ROOT
ATOM      1  O   HOH     1     -12.010  48.191  12.065  0.00  0.00    +0.000 OA
ENDROOT
TORSDOF 0
REMARK  Name = ../refined-set-2016/4w97/4w97_pocket.pdb
REMARK  282 active torsions:
REMARK  status: ('A' for Active; 'I' for Inactive)
REMARK    1  A    between atoms: _1  and  _3
REMARK    2  A    between atoms: _3  and  _4
REMARK    3  A    between atoms: _3  and  _6
REMARK    4  A    between atoms: _6  and  _7
REMARK    5  A    between atoms: _10  and  _12
REMARK    6  A    between atoms: _12  and  _13
REMARK    7  A    between atoms: _12  and  _15
REMARK    8  A    between atoms: _15  and  _16
REMARK    9  A    between atoms: _22  and  _24
REMARK   10  A    between atoms: _24  and  _25
REMARK   11  A    between atoms: _24  and  _27
REMARK   12  A    between atoms: _27  and  _28
REMARK   13  A    between atoms: _31  and  _33
REMARK   14  A    between atoms: _33  and  _34
REMARK   15  A    between atoms: _33  and  _36
REMARK   16  A    between atoms: _36  and  _37
REMARK   17  A    between atoms: _40  and  _42
REMARK   18  A    between atoms: _42  and  _43
REMARK   19  A    between atoms: _42  and  _45
REMARK   20  A    between atoms: _45  and  _46
REMARK   21  A    between atoms: _52  and  _54
REMARK   22  A    between atoms: _54  and  _55
REMARK   23  A    between atoms: _54  and  _57
REMARK   24  A    between atoms: _57  and  _58
REMARK   25  A    between atoms: _63  and  _64
REMARK   26  A    between atoms: _66  and  _68
REMARK   27  A    between atoms: _68  and  _69
REMARK   28  A    between atoms: _68  and  _71
REMARK   29  A    between atoms: _71  and  _72
REMARK   30  A    between atoms: _74  and  _76
REMARK   31  A    between atoms: _76  and  _77
REMARK   32  A    between atoms: _80  and  _82
REMARK   33  A    between atoms: _82  and  _83
REMARK   34  A    between atoms: _82  and  _85
REMARK   35  A    between atoms: _85  and  _86
REMARK   36  A    between atoms: _89  and  _91
REMARK   37  A    between atoms: _91  and  _92
REMARK   38  A    between atoms: _91  and  _94
REMARK   39  A    between atoms: _94  and  _95
REMARK   40  A    between atoms: _95  and  _96
REMARK   41  A    between atoms: _101  and  _103
REMARK   42  A    between atoms: _103  and  _104
REMARK   43  A    between atoms: _103  and  _106
REMARK   44  A    between atoms: _109  and  _111
REMARK   45  A    between atoms: _111  and  _112
REMARK   46  A    between atoms: _111  and  _114
REMARK   47  A    between atoms: _117  and  _119
REMARK   48  A    between atoms: _119  and  _120
REMARK   49  A    between atoms: _119  and  _122
REMARK   50  A    between atoms: _122  and  _123
REMARK   51  A    between atoms: _126  and  _128
REMARK   52  A    between atoms: _128  and  _129
REMARK   53  A    between atoms: _128  and  _131
REMARK   54  A    between atoms: _131  and  _132
REMARK   55  A    between atoms: _137  and  _138
REMARK   56  A    between atoms: _140  and  _142
REMARK   57  A    between atoms: _142  and  _143
REMARK   58  A    between atoms: _142  and  _145
REMARK   59  A    between atoms: _145  and  _146
REMARK   60  A    between atoms: _146  and  _147
REMARK   61  A    between atoms: _152  and  _154
REMARK   62  A    between atoms: _154  and  _155
REMARK   63  A    between atoms: _154  and  _157
REMARK   64  A    between atoms: _157  and  _158
REMARK   65  A    between atoms: _161  and  _163
REMARK   66  A    between atoms: _163  and  _164
REMARK   67  A    between atoms: _163  and  _166
REMARK   68  A    between atoms: _166  and  _167
REMARK   69  A    between atoms: _167  and  _168
REMARK   70  A    between atoms: _171  and  _173
REMARK   71  A    between atoms: _173  and  _174
REMARK   72  A    between atoms: _177  and  _179
REMARK   73  A    between atoms: _179  and  _180
REMARK   74  A    between atoms: _179  and  _182
REMARK   75  A    between atoms: _182  and  _183
REMARK   76  A    between atoms: _183  and  _184
REMARK   77  A    between atoms: _189  and  _191
REMARK   78  A    between atoms: _191  and  _192
REMARK   79  A    between atoms: _191  and  _194
REMARK   80  A    between atoms: _194  and  _195
REMARK   81  A    between atoms: _195  and  _196
REMARK   82  A    between atoms: _196  and  _197
REMARK   83  A    between atoms: _206  and  _208
REMARK   84  A    between atoms: _208  and  _209
REMARK   85  A    between atoms: _212  and  _214
REMARK   86  A    between atoms: _214  and  _215
REMARK   87  A    between atoms: _214  and  _217
REMARK   88  A    between atoms: _217  and  _218
REMARK   89  A    between atoms: _223  and  _224
REMARK   90  A    between atoms: _226  and  _228
REMARK   91  A    between atoms: _228  and  _229
REMARK   92  A    between atoms: _228  and  _231
REMARK   93  A    between atoms: _231  and  _232
REMARK   94  A    between atoms: _235  and  _237
REMARK   95  A    between atoms: _237  and  _238
REMARK   96  A    between atoms: _237  and  _240
REMARK   97  A    between atoms: _240  and  _241
REMARK   98  A    between atoms: _241  and  _242
REMARK   99  A    between atoms: _245  and  _247
REMARK  100  A    between atoms: _247  and  _248
REMARK  101  A    between atoms: _247  and  _250
REMARK  102  A    between atoms: _250  and  _251
REMARK  103  A    between atoms: _254  and  _256
REMARK  104  A    between atoms: _256  and  _257
REMARK  105  A    between atoms: _256  and  _259
REMARK  106  A    between atoms: _259  and  _260
REMARK  107  A    between atoms: _260  and  _261
REMARK  108  A    between atoms: _261  and  _262
REMARK  109  A    between atoms: _271  and  _273
REMARK  110  A    between atoms: _273  and  _274
REMARK  111  A    between atoms: _273  and  _276
REMARK  112  A    between atoms: _276  and  _277
REMARK  113  A    between atoms: _282  and  _284
REMARK  114  A    between atoms: _284  and  _285
REMARK  115  A    between atoms: _284  and  _287
REMARK  116  A    between atoms: _287  and  _288
REMARK  117  A    between atoms: _288  and  _289
REMARK  118  A    between atoms: _289  and  _290
REMARK  119  A    between atoms: _290  and  _291
REMARK  120  A    between atoms: _295  and  _297
REMARK  121  A    between atoms: _297  and  _298
REMARK  122  A    between atoms: _297  and  _300
REMARK  123  A    between atoms: _300  and  _301
REMARK  124  A    between atoms: _301  and  _302
REMARK  125  A    between atoms: _307  and  _309
REMARK  126  A    between atoms: _309  and  _310
REMARK  127  A    between atoms: _309  and  _312
REMARK  128  A    between atoms: _312  and  _313
REMARK  129  A    between atoms: _313  and  _314
REMARK  130  A    between atoms: _319  and  _321
REMARK  131  A    between atoms: _321  and  _322
REMARK  132  A    between atoms: _321  and  _324
REMARK  133  A    between atoms: _324  and  _325
REMARK  134  A    between atoms: _325  and  _326
REMARK  135  A    between atoms: _326  and  _327
REMARK  136  A    between atoms: _336  and  _338
REMARK  137  A    between atoms: _338  and  _339
REMARK  138  A    between atoms: _338  and  _341
REMARK  139  A    between atoms: _341  and  _342
REMARK  140  A    between atoms: _342  and  _343
REMARK  141  A    between atoms: _345  and  _347
REMARK  142  A    between atoms: _347  and  _348
REMARK  143  A    between atoms: _347  and  _350
REMARK  144  A    between atoms: _350  and  _351
REMARK  145  A    between atoms: _361  and  _363
REMARK  146  A    between atoms: _363  and  _364
REMARK  147  A    between atoms: _363  and  _366
REMARK  148  A    between atoms: _366  and  _367
REMARK  149  A    between atoms: _370  and  _372
REMARK  150  A    between atoms: _372  and  _373
REMARK  151  A    between atoms: _372  and  _375
REMARK  152  A    between atoms: _375  and  _376
REMARK  153  A    between atoms: _379  and  _381
REMARK  154  A    between atoms: _381  and  _382
REMARK  155  A    between atoms: _381  and  _384
REMARK  156  A    between atoms: _384  and  _385
REMARK  157  A    between atoms: _388  and  _390
REMARK  158  A    between atoms: _390  and  _391
REMARK  159  A    between atoms: _390  and  _393
REMARK  160  A    between atoms: _393  and  _394
REMARK  161  A    between atoms: _399  and  _400
REMARK  162  A    between atoms: _402  and  _404
REMARK  163  A    between atoms: _404  and  _405
REMARK  164  A    between atoms: _404  and  _407
REMARK  165  A    between atoms: _407  and  _408
REMARK  166  A    between atoms: _408  and  _409
REMARK  167  A    between atoms: _409  and  _410
REMARK  168  A    between atoms: _419  and  _421
REMARK  169  A    between atoms: _421  and  _422
REMARK  170  A    between atoms: _421  and  _424
REMARK  171  A    between atoms: _424  and  _425
REMARK  172  A    between atoms: _431  and  _433
REMARK  173  A    between atoms: _433  and  _434
REMARK  174  A    between atoms: _433  and  _436
REMARK  175  A    between atoms: _436  and  _437
REMARK  176  A    between atoms: _440  and  _442
REMARK  177  A    between atoms: _442  and  _443
REMARK  178  A    between atoms: _442  and  _445
REMARK  179  A    between atoms: _445  and  _446
REMARK  180  A    between atoms: _446  and  _447
REMARK  181  A    between atoms: _447  and  _448
REMARK  182  A    between atoms: _457  and  _459
REMARK  183  A    between atoms: _459  and  _460
REMARK  184  A    between atoms: _459  and  _462
REMARK  185  A    between atoms: _462  and  _463
REMARK  186  A    between atoms: _466  and  _468
REMARK  187  A    between atoms: _468  and  _469
REMARK  188  A    between atoms: _468  and  _471
REMARK  189  A    between atoms: _471  and  _472
REMARK  190  A    between atoms: _475  and  _477
REMARK  191  A    between atoms: _477  and  _478
REMARK  192  A    between atoms: _477  and  _480
REMARK  193  A    between atoms: _480  and  _481
REMARK  194  A    between atoms: _484  and  _486
REMARK  195  A    between atoms: _486  and  _487
REMARK  196  A    between atoms: _486  and  _489
REMARK  197  A    between atoms: _489  and  _490
REMARK  198  A    between atoms: _500  and  _502
REMARK  199  A    between atoms: _502  and  _503
REMARK  200  A    between atoms: _502  and  _505
REMARK  201  A    between atoms: _508  and  _510
REMARK  202  A    between atoms: _510  and  _511
REMARK  203  A    between atoms: _510  and  _513
REMARK  204  A    between atoms: _513  and  _514
REMARK  205  A    between atoms: _516  and  _518
REMARK  206  A    between atoms: _518  and  _519
REMARK  207  A    between atoms: _518  and  _521
REMARK  208  A    between atoms: _524  and  _526
REMARK  209  A    between atoms: _526  and  _527
REMARK  210  A    between atoms: _526  and  _529
REMARK  211  A    between atoms: _529  and  _530
REMARK  212  A    between atoms: _530  and  _531
REMARK  213  A    between atoms: _531  and  _532
REMARK  214  A    between atoms: _541  and  _543
REMARK  215  A    between atoms: _543  and  _544
REMARK  216  A    between atoms: _543  and  _546
REMARK  217  A    between atoms: _546  and  _547
REMARK  218  A    between atoms: _547  and  _548
REMARK  219  A    between atoms: _551  and  _553
REMARK  220  A    between atoms: _553  and  _554
REMARK  221  A    between atoms: _553  and  _556
REMARK  222  A    between atoms: _556  and  _557
REMARK  223  A    between atoms: _557  and  _558
REMARK  224  A    between atoms: _563  and  _565
REMARK  225  A    between atoms: _565  and  _566
REMARK  226  A    between atoms: _565  and  _568
REMARK  227  A    between atoms: _568  and  _569
REMARK  228  A    between atoms: _572  and  _574
REMARK  229  A    between atoms: _574  and  _575
REMARK  230  A    between atoms: _574  and  _577
REMARK  231  A    between atoms: _580  and  _582
REMARK  232  A    between atoms: _582  and  _583
REMARK  233  A    between atoms: _582  and  _585
REMARK  234  A    between atoms: _585  and  _586
REMARK  235  A    between atoms: _588  and  _590
REMARK  236  A    between atoms: _590  and  _591
REMARK  237  A    between atoms: _590  and  _593
REMARK  238  A    between atoms: _596  and  _598
REMARK  239  A    between atoms: _598  and  _599
REMARK  240  A    between atoms: _598  and  _601
REMARK  241  A    between atoms: _601  and  _602
REMARK  242  A    between atoms: _602  and  _603
REMARK  243  A    between atoms: _603  and  _604
REMARK  244  A    between atoms: _613  and  _615
REMARK  245  A    between atoms: _615  and  _616
REMARK  246  A    between atoms: _615  and  _618
REMARK  247  A    between atoms: _618  and  _619
REMARK  248  A    between atoms: _629  and  _631
REMARK  249  A    between atoms: _631  and  _632
REMARK  250  A    between atoms: _631  and  _634
REMARK  251  A    between atoms: _634  and  _635
REMARK  252  A    between atoms: _640  and  _641
REMARK  253  A    between atoms: _643  and  _645
REMARK  254  A    between atoms: _645  and  _646
REMARK  255  A    between atoms: _645  and  _648
REMARK  256  A    between atoms: _648  and  _649
REMARK  257  A    between atoms: _649  and  _650
REMARK  258  A    between atoms: _650  and  _651
REMARK  259  A    between atoms: _661  and  _662
REMARK  260  A    between atoms: _667  and  _669
REMARK  261  A    between atoms: _669  and  _670
REMARK  262  A    between atoms: _672  and  _674
REMARK  263  A    between atoms: _674  and  _675
REMARK  264  A    between atoms: _678  and  _679
REMARK  265  A    between atoms: _684  and  _686
REMARK  266  A    between atoms: _686  and  _687
REMARK  267  A    between atoms: _686  and  _689
REMARK  268  A    between atoms: _689  and  _690
REMARK  269  A    between atoms: _693  and  _695
REMARK  270  A    between atoms: _695  and  _696
REMARK  271  A    between atoms: _695  and  _698
REMARK  272  A    between atoms: _698  and  _699
REMARK  273  A    between atoms: _702  and  _704
REMARK  274  A    between atoms: _704  and  _705
REMARK  275  A    between atoms: _708  and  _710
REMARK  276  A    between atoms: _710  and  _711
REMARK  277  A    between atoms: _710  and  _713
REMARK  278  A    between atoms: _713  and  _714
REMARK  279  A    between atoms: _714  and  _715
REMARK  280  A    between atoms: _720  and  _722
REMARK  281  A    between atoms: _722  and  _723
REMARK  282  A    between atoms: _722  and  _725
REMARK                            x       y       z     vdW  Elec       q    Type
REMARK                         _______ _______ _______ _____ _____    ______ ____
ROOT
ATOM      1  O   HOH     1     -13.120  38.868  -0.527  0.00  0.00    +0.000 OA
ENDROOT
TORSDOF 0
REMARK  Name = ../refined-set-2016/4w97/4w97_pocket.pdb
REMARK  282 active torsions:
REMARK  status: ('A' for Active; 'I' for Inactive)
REMARK    1  A    between atoms: _1  and  _3
REMARK    2  A    between atoms: _3  and  _4
REMARK    3  A    between atoms: _3  and  _6
REMARK    4  A    between atoms: _6  and  _7
REMARK    5  A    between atoms: _10  and  _12
REMARK    6  A    between atoms: _12  and  _13
REMARK    7  A    between atoms: _12  and  _15
REMARK    8  A    between atoms: _15  and  _16
REMARK    9  A    between atoms: _22  and  _24
REMARK   10  A    between atoms: _24  and  _25
REMARK   11  A    between atoms: _24  and  _27
REMARK   12  A    between atoms: _27  and  _28
REMARK   13  A    between atoms: _31  and  _33
REMARK   14  A    between atoms: _33  and  _34
REMARK   15  A    between atoms: _33  and  _36
REMARK   16  A    between atoms: _36  and  _37
REMARK   17  A    between atoms: _40  and  _42
REMARK   18  A    between atoms: _42  and  _43
REMARK   19  A    between atoms: _42  and  _45
REMARK   20  A    between atoms: _45  and  _46
REMARK   21  A    between atoms: _52  and  _54
REMARK   22  A    between atoms: _54  and  _55
REMARK   23  A    between atoms: _54  and  _57
REMARK   24  A    between atoms: _57  and  _58
REMARK   25  A    between atoms: _63  and  _64
REMARK   26  A    between atoms: _66  and  _68
REMARK   27  A    between atoms: _68  and  _69
REMARK   28  A    between atoms: _68  and  _71
REMARK   29  A    between atoms: _71  and  _72
REMARK   30  A    between atoms: _74  and  _76
REMARK   31  A    between atoms: _76  and  _77
REMARK   32  A    between atoms: _80  and  _82
REMARK   33  A    between atoms: _82  and  _83
REMARK   34  A    between atoms: _82  and  _85
REMARK   35  A    between atoms: _85  and  _86
REMARK   36  A    between atoms: _89  and  _91
REMARK   37  A    between atoms: _91  and  _92
REMARK   38  A    between atoms: _91  and  _94
REMARK   39  A    between atoms: _94  and  _95
REMARK   40  A    between atoms: _95  and  _96
REMARK   41  A    between atoms: _101  and  _103
REMARK   42  A    between atoms: _103  and  _104
REMARK   43  A    between atoms: _103  and  _106
REMARK   44  A    between atoms: _109  and  _111
REMARK   45  A    between atoms: _111  and  _112
REMARK   46  A    between atoms: _111  and  _114
REMARK   47  A    between atoms: _117  and  _119
REMARK   48  A    between atoms: _119  and  _120
REMARK   49  A    between atoms: _119  and  _122
REMARK   50  A    between atoms: _122  and  _123
REMARK   51  A    between atoms: _126  and  _128
REMARK   52  A    between atoms: _128  and  _129
REMARK   53  A    between atoms: _128  and  _131
REMARK   54  A    between atoms: _131  and  _132
REMARK   55  A    between atoms: _137  and  _138
REMARK   56  A    between atoms: _140  and  _142
REMARK   57  A    between atoms: _142  and  _143
REMARK   58  A    between atoms: _142  and  _145
REMARK   59  A    between atoms: _145  and  _146
REMARK   60  A    between atoms: _146  and  _147
REMARK   61  A    between atoms: _152  and  _154
REMARK   62  A    between atoms: _154  and  _155
REMARK   63  A    between atoms: _154  and  _157
REMARK   64  A    between atoms: _157  and  _158
REMARK   65  A    between atoms: _161  and  _163
REMARK   66  A    between atoms: _163  and  _164
REMARK   67  A    between atoms: _163  and  _166
REMARK   68  A    between atoms: _166  and  _167
REMARK   69  A    between atoms: _167  and  _168
REMARK   70  A    between atoms: _171  and  _173
REMARK   71  A    between atoms: _173  and  _174
REMARK   72  A    between atoms: _177  and  _179
REMARK   73  A    between atoms: _179  and  _180
REMARK   74  A    between atoms: _179  and  _182
REMARK   75  A    between atoms: _182  and  _183
REMARK   76  A    between atoms: _183  and  _184
REMARK   77  A    between atoms: _189  and  _191
REMARK   78  A    between atoms: _191  and  _192
REMARK   79  A    between atoms: _191  and  _194
REMARK   80  A    between atoms: _194  and  _195
REMARK   81  A    between atoms: _195  and  _196
REMARK   82  A    between atoms: _196  and  _197
REMARK   83  A    between atoms: _206  and  _208
REMARK   84  A    between atoms: _208  and  _209
REMARK   85  A    between atoms: _212  and  _214
REMARK   86  A    between atoms: _214  and  _215
REMARK   87  A    between atoms: _214  and  _217
REMARK   88  A    between atoms: _217  and  _218
REMARK   89  A    between atoms: _223  and  _224
REMARK   90  A    between atoms: _226  and  _228
REMARK   91  A    between atoms: _228  and  _229
REMARK   92  A    between atoms: _228  and  _231
REMARK   93  A    between atoms: _231  and  _232
REMARK   94  A    between atoms: _235  and  _237
REMARK   95  A    between atoms: _237  and  _238
REMARK   96  A    between atoms: _237  and  _240
REMARK   97  A    between atoms: _240  and  _241
REMARK   98  A    between atoms: _241  and  _242
REMARK   99  A    between atoms: _245  and  _247
REMARK  100  A    between atoms: _247  and  _248
REMARK  101  A    between atoms: _247  and  _250
REMARK  102  A    between atoms: _250  and  _251
REMARK  103  A    between atoms: _254  and  _256
REMARK  104  A    between atoms: _256  and  _257
REMARK  105  A    between atoms: _256  and  _259
REMARK  106  A    between atoms: _259  and  _260
REMARK  107  A    between atoms: _260  and  _261
REMARK  108  A    between atoms: _261  and  _262
REMARK  109  A    between atoms: _271  and  _273
REMARK  110  A    between atoms: _273  and  _274
REMARK  111  A    between atoms: _273  and  _276
REMARK  112  A    between atoms: _276  and  _277
REMARK  113  A    between atoms: _282  and  _284
REMARK  114  A    between atoms: _284  and  _285
REMARK  115  A    between atoms: _284  and  _287
REMARK  116  A    between atoms: _287  and  _288
REMARK  117  A    between atoms: _288  and  _289
REMARK  118  A    between atoms: _289  and  _290
REMARK  119  A    between atoms: _290  and  _291
REMARK  120  A    between atoms: _295  and  _297
REMARK  121  A    between atoms: _297  and  _298
REMARK  122  A    between atoms: _297  and  _300
REMARK  123  A    between atoms: _300  and  _301
REMARK  124  A    between atoms: _301  and  _302
REMARK  125  A    between atoms: _307  and  _309
REMARK  126  A    between atoms: _309  and  _310
REMARK  127  A    between atoms: _309  and  _312
REMARK  128  A    between atoms: _312  and  _313
REMARK  129  A    between atoms: _313  and  _314
REMARK  130  A    between atoms: _319  and  _321
REMARK  131  A    between atoms: _321  and  _322
REMARK  132  A    between atoms: _321  and  _324
REMARK  133  A    between atoms: _324  and  _325
REMARK  134  A    between atoms: _325  and  _326
REMARK  135  A    between atoms: _326  and  _327
REMARK  136  A    between atoms: _336  and  _338
REMARK  137  A    between atoms: _338  and  _339
REMARK  138  A    between atoms: _338  and  _341
REMARK  139  A    between atoms: _341  and  _342
REMARK  140  A    between atoms: _342  and  _343
REMARK  141  A    between atoms: _345  and  _347
REMARK  142  A    between atoms: _347  and  _348
REMARK  143  A    between atoms: _347  and  _350
REMARK  144  A    between atoms: _350  and  _351
REMARK  145  A    between atoms: _361  and  _363
REMARK  146  A    between atoms: _363  and  _364
REMARK  147  A    between atoms: _363  and  _366
REMARK  148  A    between atoms: _366  and  _367
REMARK  149  A    between atoms: _370  and  _372
REMARK  150  A    between atoms: _372  and  _373
REMARK  151  A    between atoms: _372  and  _375
REMARK  152  A    between atoms: _375  and  _376
REMARK  153  A    between atoms: _379  and  _381
REMARK  154  A    between atoms: _381  and  _382
REMARK  155  A    between atoms: _381  and  _384
REMARK  156  A    between atoms: _384  and  _385
REMARK  157  A    between atoms: _388  and  _390
REMARK  158  A    between atoms: _390  and  _391
REMARK  159  A    between atoms: _390  and  _393
REMARK  160  A    between atoms: _393  and  _394
REMARK  161  A    between atoms: _399  and  _400
REMARK  162  A    between atoms: _402  and  _404
REMARK  163  A    between atoms: _404  and  _405
REMARK  164  A    between atoms: _404  and  _407
REMARK  165  A    between atoms: _407  and  _408
REMARK  166  A    between atoms: _408  and  _409
REMARK  167  A    between atoms: _409  and  _410
REMARK  168  A    between atoms: _419  and  _421
REMARK  169  A    between atoms: _421  and  _422
REMARK  170  A    between atoms: _421  and  _424
REMARK  171  A    between atoms: _424  and  _425
REMARK  172  A    between atoms: _431  and  _433
REMARK  173  A    between atoms: _433  and  _434
REMARK  174  A    between atoms: _433  and  _436
REMARK  175  A    between atoms: _436  and  _437
REMARK  176  A    between atoms: _440  and  _442
REMARK  177  A    between atoms: _442  and  _443
REMARK  178  A    between atoms: _442  and  _445
REMARK  179  A    between atoms: _445  and  _446
REMARK  180  A    between atoms: _446  and  _447
REMARK  181  A    between atoms: _447  and  _448
REMARK  182  A    between atoms: _457  and  _459
REMARK  183  A    between atoms: _459  and  _460
REMARK  184  A    between atoms: _459  and  _462
REMARK  185  A    between atoms: _462  and  _463
REMARK  186  A    between atoms: _466  and  _468
REMARK  187  A    between atoms: _468  and  _469
REMARK  188  A    between atoms: _468  and  _471
REMARK  189  A    between atoms: _471  and  _472
REMARK  190  A    between atoms: _475  and  _477
REMARK  191  A    between atoms: _477  and  _478
REMARK  192  A    between atoms: _477  and  _480
REMARK  193  A    between atoms: _480  and  _481
REMARK  194  A    between atoms: _484  and  _486
REMARK  195  A    between atoms: _486  and  _487
REMARK  196  A    between atoms: _486  and  _489
REMARK  197  A    between atoms: _489  and  _490
REMARK  198  A    between atoms: _500  and  _502
REMARK  199  A    between atoms: _502  and  _503
REMARK  200  A    between atoms: _502  and  _505
REMARK  201  A    between atoms: _508  and  _510
REMARK  202  A    between atoms: _510  and  _511
REMARK  203  A    between atoms: _510  and  _513
REMARK  204  A    between atoms: _513  and  _514
REMARK  205  A    between atoms: _516  and  _518
REMARK  206  A    between atoms: _518  and  _519
REMARK  207  A    between atoms: _518  and  _521
REMARK  208  A    between atoms: _524  and  _526
REMARK  209  A    between atoms: _526  and  _527
REMARK  210  A    between atoms: _526  and  _529
REMARK  211  A    between atoms: _529  and  _530
REMARK  212  A    between atoms: _530  and  _531
REMARK  213  A    between atoms: _531  and  _532
REMARK  214  A    between atoms: _541  and  _543
REMARK  215  A    between atoms: _543  and  _544
REMARK  216  A    between atoms: _543  and  _546
REMARK  217  A    between atoms: _546  and  _547
REMARK  218  A    between atoms: _547  and  _548
REMARK  219  A    between atoms: _551  and  _553
REMARK  220  A    between atoms: _553  and  _554
REMARK  221  A    between atoms: _553  and  _556
REMARK  222  A    between atoms: _556  and  _557
REMARK  223  A    between atoms: _557  and  _558
REMARK  224  A    between atoms: _563  and  _565
REMARK  225  A    between atoms: _565  and  _566
REMARK  226  A    between atoms: _565  and  _568
REMARK  227  A    between atoms: _568  and  _569
REMARK  228  A    between atoms: _572  and  _574
REMARK  229  A    between atoms: _574  and  _575
REMARK  230  A    between atoms: _574  and  _577
REMARK  231  A    between atoms: _580  and  _582
REMARK  232  A    between atoms: _582  and  _583
REMARK  233  A    between atoms: _582  and  _585
REMARK  234  A    between atoms: _585  and  _586
REMARK  235  A    between atoms: _588  and  _590
REMARK  236  A    between atoms: _590  and  _591
REMARK  237  A    between atoms: _590  and  _593
REMARK  238  A    between atoms: _596  and  _598
REMARK  239  A    between atoms: _598  and  _599
REMARK  240  A    between atoms: _598  and  _601
REMARK  241  A    between atoms: _601  and  _602
REMARK  242  A    between atoms: _602  and  _603
REMARK  243  A    between atoms: _603  and  _604
REMARK  244  A    between atoms: _613  and  _615
REMARK  245  A    between atoms: _615  and  _616
REMARK  246  A    between atoms: _615  and  _618
REMARK  247  A    between atoms: _618  and  _619
REMARK  248  A    between atoms: _629  and  _631
REMARK  249  A    between atoms: _631  and  _632
REMARK  250  A    between atoms: _631  and  _634
REMARK  251  A    between atoms: _634  and  _635
REMARK  252  A    between atoms: _640  and  _641
REMARK  253  A    between atoms: _643  and  _645
REMARK  254  A    between atoms: _645  and  _646
REMARK  255  A    between atoms: _645  and  _648
REMARK  256  A    between atoms: _648  and  _649
REMARK  257  A    between atoms: _649  and  _650
REMARK  258  A    between atoms: _650  and  _651
REMARK  259  A    between atoms: _661  and  _662
REMARK  260  A    between atoms: _667  and  _669
REMARK  261  A    between atoms: _669  and  _670
REMARK  262  A    between atoms: _672  and  _674
REMARK  263  A    between atoms: _674  and  _675
REMARK  264  A    between atoms: _678  and  _679
REMARK  265  A    between atoms: _684  and  _686
REMARK  266  A    between atoms: _686  and  _687
REMARK  267  A    between atoms: _686  and  _689
REMARK  268  A    between atoms: _689  and  _690
REMARK  269  A    between atoms: _693  and  _695
REMARK  270  A    between atoms: _695  and  _696
REMARK  271  A    between atoms: _695  and  _698
REMARK  272  A    between atoms: _698  and  _699
REMARK  273  A    between atoms: _702  and  _704
REMARK  274  A    between atoms: _704  and  _705
REMARK  275  A    between atoms: _708  and  _710
REMARK  276  A    between atoms: _710  and  _711
REMARK  277  A    between atoms: _710  and  _713
REMARK  278  A    between atoms: _713  and  _714
REMARK  279  A    between atoms: _714  and  _715
REMARK  280  A    between atoms: _720  and  _722
REMARK  281  A    between atoms: _722  and  _723
REMARK  282  A    between atoms: _722  and  _725
REMARK                            x       y       z     vdW  Elec       q    Type
REMARK                         _______ _______ _______ _____ _____    ______ ____
ROOT
ATOM      1  O   HOH     1     -14.786  49.004  11.520  0.00  0.00    +0.000 OA
ENDROOT
TORSDOF 0
REMARK  Name = ../refined-set-2016/4w97/4w97_pocket.pdb
REMARK  282 active torsions:
REMARK  status: ('A' for Active; 'I' for Inactive)
REMARK    1  A    between atoms: _1  and  _3
REMARK    2  A    between atoms: _3  and  _4
REMARK    3  A    between atoms: _3  and  _6
REMARK    4  A    between atoms: _6  and  _7
REMARK    5  A    between atoms: _10  and  _12
REMARK    6  A    between atoms: _12  and  _13
REMARK    7  A    between atoms: _12  and  _15
REMARK    8  A    between atoms: _15  and  _16
REMARK    9  A    between atoms: _22  and  _24
REMARK   10  A    between atoms: _24  and  _25
REMARK   11  A    between atoms: _24  and  _27
REMARK   12  A    between atoms: _27  and  _28
REMARK   13  A    between atoms: _31  and  _33
REMARK   14  A    between atoms: _33  and  _34
REMARK   15  A    between atoms: _33  and  _36
REMARK   16  A    between atoms: _36  and  _37
REMARK   17  A    between atoms: _40  and  _42
REMARK   18  A    between atoms: _42  and  _43
REMARK   19  A    between atoms: _42  and  _45
REMARK   20  A    between atoms: _45  and  _46
REMARK   21  A    between atoms: _52  and  _54
REMARK   22  A    between atoms: _54  and  _55
REMARK   23  A    between atoms: _54  and  _57
REMARK   24  A    between atoms: _57  and  _58
REMARK   25  A    between atoms: _63  and  _64
REMARK   26  A    between atoms: _66  and  _68
REMARK   27  A    between atoms: _68  and  _69
REMARK   28  A    between atoms: _68  and  _71
REMARK   29  A    between atoms: _71  and  _72
REMARK   30  A    between atoms: _74  and  _76
REMARK   31  A    between atoms: _76  and  _77
REMARK   32  A    between atoms: _80  and  _82
REMARK   33  A    between atoms: _82  and  _83
REMARK   34  A    between atoms: _82  and  _85
REMARK   35  A    between atoms: _85  and  _86
REMARK   36  A    between atoms: _89  and  _91
REMARK   37  A    between atoms: _91  and  _92
REMARK   38  A    between atoms: _91  and  _94
REMARK   39  A    between atoms: _94  and  _95
REMARK   40  A    between atoms: _95  and  _96
REMARK   41  A    between atoms: _101  and  _103
REMARK   42  A    between atoms: _103  and  _104
REMARK   43  A    between atoms: _103  and  _106
REMARK   44  A    between atoms: _109  and  _111
REMARK   45  A    between atoms: _111  and  _112
REMARK   46  A    between atoms: _111  and  _114
REMARK   47  A    between atoms: _117  and  _119
REMARK   48  A    between atoms: _119  and  _120
REMARK   49  A    between atoms: _119  and  _122
REMARK   50  A    between atoms: _122  and  _123
REMARK   51  A    between atoms: _126  and  _128
REMARK   52  A    between atoms: _128  and  _129
REMARK   53  A    between atoms: _128  and  _131
REMARK   54  A    between atoms: _131  and  _132
REMARK   55  A    between atoms: _137  and  _138
REMARK   56  A    between atoms: _140  and  _142
REMARK   57  A    between atoms: _142  and  _143
REMARK   58  A    between atoms: _142  and  _145
REMARK   59  A    between atoms: _145  and  _146
REMARK   60  A    between atoms: _146  and  _147
REMARK   61  A    between atoms: _152  and  _154
REMARK   62  A    between atoms: _154  and  _155
REMARK   63  A    between atoms: _154  and  _157
REMARK   64  A    between atoms: _157  and  _158
REMARK   65  A    between atoms: _161  and  _163
REMARK   66  A    between atoms: _163  and  _164
REMARK   67  A    between atoms: _163  and  _166
REMARK   68  A    between atoms: _166  and  _167
REMARK   69  A    between atoms: _167  and  _168
REMARK   70  A    between atoms: _171  and  _173
REMARK   71  A    between atoms: _173  and  _174
REMARK   72  A    between atoms: _177  and  _179
REMARK   73  A    between atoms: _179  and  _180
REMARK   74  A    between atoms: _179  and  _182
REMARK   75  A    between atoms: _182  and  _183
REMARK   76  A    between atoms: _183  and  _184
REMARK   77  A    between atoms: _189  and  _191
REMARK   78  A    between atoms: _191  and  _192
REMARK   79  A    between atoms: _191  and  _194
REMARK   80  A    between atoms: _194  and  _195
REMARK   81  A    between atoms: _195  and  _196
REMARK   82  A    between atoms: _196  and  _197
REMARK   83  A    between atoms: _206  and  _208
REMARK   84  A    between atoms: _208  and  _209
REMARK   85  A    between atoms: _212  and  _214
REMARK   86  A    between atoms: _214  and  _215
REMARK   87  A    between atoms: _214  and  _217
REMARK   88  A    between atoms: _217  and  _218
REMARK   89  A    between atoms: _223  and  _224
REMARK   90  A    between atoms: _226  and  _228
REMARK   91  A    between atoms: _228  and  _229
REMARK   92  A    between atoms: _228  and  _231
REMARK   93  A    between atoms: _231  and  _232
REMARK   94  A    between atoms: _235  and  _237
REMARK   95  A    between atoms: _237  and  _238
REMARK   96  A    between atoms: _237  and  _240
REMARK   97  A    between atoms: _240  and  _241
REMARK   98  A    between atoms: _241  and  _242
REMARK   99  A    between atoms: _245  and  _247
REMARK  100  A    between atoms: _247  and  _248
REMARK  101  A    between atoms: _247  and  _250
REMARK  102  A    between atoms: _250  and  _251
REMARK  103  A    between atoms: _254  and  _256
REMARK  104  A    between atoms: _256  and  _257
REMARK  105  A    between atoms: _256  and  _259
REMARK  106  A    between atoms: _259  and  _260
REMARK  107  A    between atoms: _260  and  _261
REMARK  108  A    between atoms: _261  and  _262
REMARK  109  A    between atoms: _271  and  _273
REMARK  110  A    between atoms: _273  and  _274
REMARK  111  A    between atoms: _273  and  _276
REMARK  112  A    between atoms: _276  and  _277
REMARK  113  A    between atoms: _282  and  _284
REMARK  114  A    between atoms: _284  and  _285
REMARK  115  A    between atoms: _284  and  _287
REMARK  116  A    between atoms: _287  and  _288
REMARK  117  A    between atoms: _288  and  _289
REMARK  118  A    between atoms: _289  and  _290
REMARK  119  A    between atoms: _290  and  _291
REMARK  120  A    between atoms: _295  and  _297
REMARK  121  A    between atoms: _297  and  _298
REMARK  122  A    between atoms: _297  and  _300
REMARK  123  A    between atoms: _300  and  _301
REMARK  124  A    between atoms: _301  and  _302
REMARK  125  A    between atoms: _307  and  _309
REMARK  126  A    between atoms: _309  and  _310
REMARK  127  A    between atoms: _309  and  _312
REMARK  128  A    between atoms: _312  and  _313
REMARK  129  A    between atoms: _313  and  _314
REMARK  130  A    between atoms: _319  and  _321
REMARK  131  A    between atoms: _321  and  _322
REMARK  132  A    between atoms: _321  and  _324
REMARK  133  A    between atoms: _324  and  _325
REMARK  134  A    between atoms: _325  and  _326
REMARK  135  A    between atoms: _326  and  _327
REMARK  136  A    between atoms: _336  and  _338
REMARK  137  A    between atoms: _338  and  _339
REMARK  138  A    between atoms: _338  and  _341
REMARK  139  A    between atoms: _341  and  _342
REMARK  140  A    between atoms: _342  and  _343
REMARK  141  A    between atoms: _345  and  _347
REMARK  142  A    between atoms: _347  and  _348
REMARK  143  A    between atoms: _347  and  _350
REMARK  144  A    between atoms: _350  and  _351
REMARK  145  A    between atoms: _361  and  _363
REMARK  146  A    between atoms: _363  and  _364
REMARK  147  A    between atoms: _363  and  _366
REMARK  148  A    between atoms: _366  and  _367
REMARK  149  A    between atoms: _370  and  _372
REMARK  150  A    between atoms: _372  and  _373
REMARK  151  A    between atoms: _372  and  _375
REMARK  152  A    between atoms: _375  and  _376
REMARK  153  A    between atoms: _379  and  _381
REMARK  154  A    between atoms: _381  and  _382
REMARK  155  A    between atoms: _381  and  _384
REMARK  156  A    between atoms: _384  and  _385
REMARK  157  A    between atoms: _388  and  _390
REMARK  158  A    between atoms: _390  and  _391
REMARK  159  A    between atoms: _390  and  _393
REMARK  160  A    between atoms: _393  and  _394
REMARK  161  A    between atoms: _399  and  _400
REMARK  162  A    between atoms: _402  and  _404
REMARK  163  A    between atoms: _404  and  _405
REMARK  164  A    between atoms: _404  and  _407
REMARK  165  A    between atoms: _407  and  _408
REMARK  166  A    between atoms: _408  and  _409
REMARK  167  A    between atoms: _409  and  _410
REMARK  168  A    between atoms: _419  and  _421
REMARK  169  A    between atoms: _421  and  _422
REMARK  170  A    between atoms: _421  and  _424
REMARK  171  A    between atoms: _424  and  _425
REMARK  172  A    between atoms: _431  and  _433
REMARK  173  A    between atoms: _433  and  _434
REMARK  174  A    between atoms: _433  and  _436
REMARK  175  A    between atoms: _436  and  _437
REMARK  176  A    between atoms: _440  and  _442
REMARK  177  A    between atoms: _442  and  _443
REMARK  178  A    between atoms: _442  and  _445
REMARK  179  A    between atoms: _445  and  _446
REMARK  180  A    between atoms: _446  and  _447
REMARK  181  A    between atoms: _447  and  _448
REMARK  182  A    between atoms: _457  and  _459
REMARK  183  A    between atoms: _459  and  _460
REMARK  184  A    between atoms: _459  and  _462
REMARK  185  A    between atoms: _462  and  _463
REMARK  186  A    between atoms: _466  and  _468
REMARK  187  A    between atoms: _468  and  _469
REMARK  188  A    between atoms: _468  and  _471
REMARK  189  A    between atoms: _471  and  _472
REMARK  190  A    between atoms: _475  and  _477
REMARK  191  A    between atoms: _477  and  _478
REMARK  192  A    between atoms: _477  and  _480
REMARK  193  A    between atoms: _480  and  _481
REMARK  194  A    between atoms: _484  and  _486
REMARK  195  A    between atoms: _486  and  _487
REMARK  196  A    between atoms: _486  and  _489
REMARK  197  A    between atoms: _489  and  _490
REMARK  198  A    between atoms: _500  and  _502
REMARK  199  A    between atoms: _502  and  _503
REMARK  200  A    between atoms: _502  and  _505
REMARK  201  A    between atoms: _508  and  _510
REMARK  202  A    between atoms: _510  and  _511
REMARK  203  A    between atoms: _510  and  _513
REMARK  204  A    between atoms: _513  and  _514
REMARK  205  A    between atoms: _516  and  _518
REMARK  206  A    between atoms: _518  and  _519
REMARK  207  A    between atoms: _518  and  _521
REMARK  208  A    between atoms: _524  and  _526
REMARK  209  A    between atoms: _526  and  _527
REMARK  210  A    between atoms: _526  and  _529
REMARK  211  A    between atoms: _529  and  _530
REMARK  212  A    between atoms: _530  and  _531
REMARK  213  A    between atoms: _531  and  _532
REMARK  214  A    between atoms: _541  and  _543
REMARK  215  A    between atoms: _543  and  _544
REMARK  216  A    between atoms: _543  and  _546
REMARK  217  A    between atoms: _546  and  _547
REMARK  218  A    between atoms: _547  and  _548
REMARK  219  A    between atoms: _551  and  _553
REMARK  220  A    between atoms: _553  and  _554
REMARK  221  A    between atoms: _553  and  _556
REMARK  222  A    between atoms: _556  and  _557
REMARK  223  A    between atoms: _557  and  _558
REMARK  224  A    between atoms: _563  and  _565
REMARK  225  A    between atoms: _565  and  _566
REMARK  226  A    between atoms: _565  and  _568
REMARK  227  A    between atoms: _568  and  _569
REMARK  228  A    between atoms: _572  and  _574
REMARK  229  A    between atoms: _574  and  _575
REMARK  230  A    between atoms: _574  and  _577
REMARK  231  A    between atoms: _580  and  _582
REMARK  232  A    between atoms: _582  and  _583
REMARK  233  A    between atoms: _582  and  _585
REMARK  234  A    between atoms: _585  and  _586
REMARK  235  A    between atoms: _588  and  _590
REMARK  236  A    between atoms: _590  and  _591
REMARK  237  A    between atoms: _590  and  _593
REMARK  238  A    between atoms: _596  and  _598
REMARK  239  A    between atoms: _598  and  _599
REMARK  240  A    between atoms: _598  and  _601
REMARK  241  A    between atoms: _601  and  _602
REMARK  242  A    between atoms: _602  and  _603
REMARK  243  A    between atoms: _603  and  _604
REMARK  244  A    between atoms: _613  and  _615
REMARK  245  A    between atoms: _615  and  _616
REMARK  246  A    between atoms: _615  and  _618
REMARK  247  A    between atoms: _618  and  _619
REMARK  248  A    between atoms: _629  and  _631
REMARK  249  A    between atoms: _631  and  _632
REMARK  250  A    between atoms: _631  and  _634
REMARK  251  A    between atoms: _634  and  _635
REMARK  252  A    between atoms: _640  and  _641
REMARK  253  A    between atoms: _643  and  _645
REMARK  254  A    between atoms: _645  and  _646
REMARK  255  A    between atoms: _645  and  _648
REMARK  256  A    between atoms: _648  and  _649
REMARK  257  A    between atoms: _649  and  _650
REMARK  258  A    between atoms: _650  and  _651
REMARK  259  A    between atoms: _661  and  _662
REMARK  260  A    between atoms: _667  and  _669
REMARK  261  A    between atoms: _669  and  _670
REMARK  262  A    between atoms: _672  and  _674
REMARK  263  A    between atoms: _674  and  _675
REMARK  264  A    between atoms: _678  and  _679
REMARK  265  A    between atoms: _684  and  _686
REMARK  266  A    between atoms: _686  and  _687
REMARK  267  A    between atoms: _686  and  _689
REMARK  268  A    between atoms: _689  and  _690
REMARK  269  A    between atoms: _693  and  _695
REMARK  270  A    between atoms: _695  and  _696
REMARK  271  A    between atoms: _695  and  _698
REMARK  272  A    between atoms: _698  and  _699
REMARK  273  A    between atoms: _702  and  _704
REMARK  274  A    between atoms: _704  and  _705
REMARK  275  A    between atoms: _708  and  _710
REMARK  276  A    between atoms: _710  and  _711
REMARK  277  A    between atoms: _710  and  _713
REMARK  278  A    between atoms: _713  and  _714
REMARK  279  A    between atoms: _714  and  _715
REMARK  280  A    between atoms: _720  and  _722
REMARK  281  A    between atoms: _722  and  _723
REMARK  282  A    between atoms: _722  and  _725
REMARK                            x       y       z     vdW  Elec       q    Type
REMARK                         _______ _______ _______ _____ _____    ______ ____
ROOT
ATOM      1  O   HOH     1     -15.606  38.586  -1.305  0.00  0.00    +0.000 OA
ENDROOT
TORSDOF 0
REMARK  Name = ../refined-set-2016/4w97/4w97_pocket.pdb
REMARK  282 active torsions:
REMARK  status: ('A' for Active; 'I' for Inactive)
REMARK    1  A    between atoms: _1  and  _3
REMARK    2  A    between atoms: _3  and  _4
REMARK    3  A    between atoms: _3  and  _6
REMARK    4  A    between atoms: _6  and  _7
REMARK    5  A    between atoms: _10  and  _12
REMARK    6  A    between atoms: _12  and  _13
REMARK    7  A    between atoms: _12  and  _15
REMARK    8  A    between atoms: _15  and  _16
REMARK    9  A    between atoms: _22  and  _24
REMARK   10  A    between atoms: _24  and  _25
REMARK   11  A    between atoms: _24  and  _27
REMARK   12  A    between atoms: _27  and  _28
REMARK   13  A    between atoms: _31  and  _33
REMARK   14  A    between atoms: _33  and  _34
REMARK   15  A    between atoms: _33  and  _36
REMARK   16  A    between atoms: _36  and  _37
REMARK   17  A    between atoms: _40  and  _42
REMARK   18  A    between atoms: _42  and  _43
REMARK   19  A    between atoms: _42  and  _45
REMARK   20  A    between atoms: _45  and  _46
REMARK   21  A    between atoms: _52  and  _54
REMARK   22  A    between atoms: _54  and  _55
REMARK   23  A    between atoms: _54  and  _57
REMARK   24  A    between atoms: _57  and  _58
REMARK   25  A    between atoms: _63  and  _64
REMARK   26  A    between atoms: _66  and  _68
REMARK   27  A    between atoms: _68  and  _69
REMARK   28  A    between atoms: _68  and  _71
REMARK   29  A    between atoms: _71  and  _72
REMARK   30  A    between atoms: _74  and  _76
REMARK   31  A    between atoms: _76  and  _77
REMARK   32  A    between atoms: _80  and  _82
REMARK   33  A    between atoms: _82  and  _83
REMARK   34  A    between atoms: _82  and  _85
REMARK   35  A    between atoms: _85  and  _86
REMARK   36  A    between atoms: _89  and  _91
REMARK   37  A    between atoms: _91  and  _92
REMARK   38  A    between atoms: _91  and  _94
REMARK   39  A    between atoms: _94  and  _95
REMARK   40  A    between atoms: _95  and  _96
REMARK   41  A    between atoms: _101  and  _103
REMARK   42  A    between atoms: _103  and  _104
REMARK   43  A    between atoms: _103  and  _106
REMARK   44  A    between atoms: _109  and  _111
REMARK   45  A    between atoms: _111  and  _112
REMARK   46  A    between atoms: _111  and  _114
REMARK   47  A    between atoms: _117  and  _119
REMARK   48  A    between atoms: _119  and  _120
REMARK   49  A    between atoms: _119  and  _122
REMARK   50  A    between atoms: _122  and  _123
REMARK   51  A    between atoms: _126  and  _128
REMARK   52  A    between atoms: _128  and  _129
REMARK   53  A    between atoms: _128  and  _131
REMARK   54  A    between atoms: _131  and  _132
REMARK   55  A    between atoms: _137  and  _138
REMARK   56  A    between atoms: _140  and  _142
REMARK   57  A    between atoms: _142  and  _143
REMARK   58  A    between atoms: _142  and  _145
REMARK   59  A    between atoms: _145  and  _146
REMARK   60  A    between atoms: _146  and  _147
REMARK   61  A    between atoms: _152  and  _154
REMARK   62  A    between atoms: _154  and  _155
REMARK   63  A    between atoms: _154  and  _157
REMARK   64  A    between atoms: _157  and  _158
REMARK   65  A    between atoms: _161  and  _163
REMARK   66  A    between atoms: _163  and  _164
REMARK   67  A    between atoms: _163  and  _166
REMARK   68  A    between atoms: _166  and  _167
REMARK   69  A    between atoms: _167  and  _168
REMARK   70  A    between atoms: _171  and  _173
REMARK   71  A    between atoms: _173  and  _174
REMARK   72  A    between atoms: _177  and  _179
REMARK   73  A    between atoms: _179  and  _180
REMARK   74  A    between atoms: _179  and  _182
REMARK   75  A    between atoms: _182  and  _183
REMARK   76  A    between atoms: _183  and  _184
REMARK   77  A    between atoms: _189  and  _191
REMARK   78  A    between atoms: _191  and  _192
REMARK   79  A    between atoms: _191  and  _194
REMARK   80  A    between atoms: _194  and  _195
REMARK   81  A    between atoms: _195  and  _196
REMARK   82  A    between atoms: _196  and  _197
REMARK   83  A    between atoms: _206  and  _208
REMARK   84  A    between atoms: _208  and  _209
REMARK   85  A    between atoms: _212  and  _214
REMARK   86  A    between atoms: _214  and  _215
REMARK   87  A    between atoms: _214  and  _217
REMARK   88  A    between atoms: _217  and  _218
REMARK   89  A    between atoms: _223  and  _224
REMARK   90  A    between atoms: _226  and  _228
REMARK   91  A    between atoms: _228  and  _229
REMARK   92  A    between atoms: _228  and  _231
REMARK   93  A    between atoms: _231  and  _232
REMARK   94  A    between atoms: _235  and  _237
REMARK   95  A    between atoms: _237  and  _238
REMARK   96  A    between atoms: _237  and  _240
REMARK   97  A    between atoms: _240  and  _241
REMARK   98  A    between atoms: _241  and  _242
REMARK   99  A    between atoms: _245  and  _247
REMARK  100  A    between atoms: _247  and  _248
REMARK  101  A    between atoms: _247  and  _250
REMARK  102  A    between atoms: _250  and  _251
REMARK  103  A    between atoms: _254  and  _256
REMARK  104  A    between atoms: _256  and  _257
REMARK  105  A    between atoms: _256  and  _259
REMARK  106  A    between atoms: _259  and  _260
REMARK  107  A    between atoms: _260  and  _261
REMARK  108  A    between atoms: _261  and  _262
REMARK  109  A    between atoms: _271  and  _273
REMARK  110  A    between atoms: _273  and  _274
REMARK  111  A    between atoms: _273  and  _276
REMARK  112  A    between atoms: _276  and  _277
REMARK  113  A    between atoms: _282  and  _284
REMARK  114  A    between atoms: _284  and  _285
REMARK  115  A    between atoms: _284  and  _287
REMARK  116  A    between atoms: _287  and  _288
REMARK  117  A    between atoms: _288  and  _289
REMARK  118  A    between atoms: _289  and  _290
REMARK  119  A    between atoms: _290  and  _291
REMARK  120  A    between atoms: _295  and  _297
REMARK  121  A    between atoms: _297  and  _298
REMARK  122  A    between atoms: _297  and  _300
REMARK  123  A    between atoms: _300  and  _301
REMARK  124  A    between atoms: _301  and  _302
REMARK  125  A    between atoms: _307  and  _309
REMARK  126  A    between atoms: _309  and  _310
REMARK  127  A    between atoms: _309  and  _312
REMARK  128  A    between atoms: _312  and  _313
REMARK  129  A    between atoms: _313  and  _314
REMARK  130  A    between atoms: _319  and  _321
REMARK  131  A    between atoms: _321  and  _322
REMARK  132  A    between atoms: _321  and  _324
REMARK  133  A    between atoms: _324  and  _325
REMARK  134  A    between atoms: _325  and  _326
REMARK  135  A    between atoms: _326  and  _327
REMARK  136  A    between atoms: _336  and  _338
REMARK  137  A    between atoms: _338  and  _339
REMARK  138  A    between atoms: _338  and  _341
REMARK  139  A    between atoms: _341  and  _342
REMARK  140  A    between atoms: _342  and  _343
REMARK  141  A    between atoms: _345  and  _347
REMARK  142  A    between atoms: _347  and  _348
REMARK  143  A    between atoms: _347  and  _350
REMARK  144  A    between atoms: _350  and  _351
REMARK  145  A    between atoms: _361  and  _363
REMARK  146  A    between atoms: _363  and  _364
REMARK  147  A    between atoms: _363  and  _366
REMARK  148  A    between atoms: _366  and  _367
REMARK  149  A    between atoms: _370  and  _372
REMARK  150  A    between atoms: _372  and  _373
REMARK  151  A    between atoms: _372  and  _375
REMARK  152  A    between atoms: _375  and  _376
REMARK  153  A    between atoms: _379  and  _381
REMARK  154  A    between atoms: _381  and  _382
REMARK  155  A    between atoms: _381  and  _384
REMARK  156  A    between atoms: _384  and  _385
REMARK  157  A    between atoms: _388  and  _390
REMARK  158  A    between atoms: _390  and  _391
REMARK  159  A    between atoms: _390  and  _393
REMARK  160  A    between atoms: _393  and  _394
REMARK  161  A    between atoms: _399  and  _400
REMARK  162  A    between atoms: _402  and  _404
REMARK  163  A    between atoms: _404  and  _405
REMARK  164  A    between atoms: _404  and  _407
REMARK  165  A    between atoms: _407  and  _408
REMARK  166  A    between atoms: _408  and  _409
REMARK  167  A    between atoms: _409  and  _410
REMARK  168  A    between atoms: _419  and  _421
REMARK  169  A    between atoms: _421  and  _422
REMARK  170  A    between atoms: _421  and  _424
REMARK  171  A    between atoms: _424  and  _425
REMARK  172  A    between atoms: _431  and  _433
REMARK  173  A    between atoms: _433  and  _434
REMARK  174  A    between atoms: _433  and  _436
REMARK  175  A    between atoms: _436  and  _437
REMARK  176  A    between atoms: _440  and  _442
REMARK  177  A    between atoms: _442  and  _443
REMARK  178  A    between atoms: _442  and  _445
REMARK  179  A    between atoms: _445  and  _446
REMARK  180  A    between atoms: _446  and  _447
REMARK  181  A    between atoms: _447  and  _448
REMARK  182  A    between atoms: _457  and  _459
REMARK  183  A    between atoms: _459  and  _460
REMARK  184  A    between atoms: _459  and  _462
REMARK  185  A    between atoms: _462  and  _463
REMARK  186  A    between atoms: _466  and  _468
REMARK  187  A    between atoms: _468  and  _469
REMARK  188  A    between atoms: _468  and  _471
REMARK  189  A    between atoms: _471  and  _472
REMARK  190  A    between atoms: _475  and  _477
REMARK  191  A    between atoms: _477  and  _478
REMARK  192  A    between atoms: _477  and  _480
REMARK  193  A    between atoms: _480  and  _481
REMARK  194  A    between atoms: _484  and  _486
REMARK  195  A    between atoms: _486  and  _487
REMARK  196  A    between atoms: _486  and  _489
REMARK  197  A    between atoms: _489  and  _490
REMARK  198  A    between atoms: _500  and  _502
REMARK  199  A    between atoms: _502  and  _503
REMARK  200  A    between atoms: _502  and  _505
REMARK  201  A    between atoms: _508  and  _510
REMARK  202  A    between atoms: _510  and  _511
REMARK  203  A    between atoms: _510  and  _513
REMARK  204  A    between atoms: _513  and  _514
REMARK  205  A    between atoms: _516  and  _518
REMARK  206  A    between atoms: _518  and  _519
REMARK  207  A    between atoms: _518  and  _521
REMARK  208  A    between atoms: _524  and  _526
REMARK  209  A    between atoms: _526  and  _527
REMARK  210  A    between atoms: _526  and  _529
REMARK  211  A    between atoms: _529  and  _530
REMARK  212  A    between atoms: _530  and  _531
REMARK  213  A    between atoms: _531  and  _532
REMARK  214  A    between atoms: _541  and  _543
REMARK  215  A    between atoms: _543  and  _544
REMARK  216  A    between atoms: _543  and  _546
REMARK  217  A    between atoms: _546  and  _547
REMARK  218  A    between atoms: _547  and  _548
REMARK  219  A    between atoms: _551  and  _553
REMARK  220  A    between atoms: _553  and  _554
REMARK  221  A    between atoms: _553  and  _556
REMARK  222  A    between atoms: _556  and  _557
REMARK  223  A    between atoms: _557  and  _558
REMARK  224  A    between atoms: _563  and  _565
REMARK  225  A    between atoms: _565  and  _566
REMARK  226  A    between atoms: _565  and  _568
REMARK  227  A    between atoms: _568  and  _569
REMARK  228  A    between atoms: _572  and  _574
REMARK  229  A    between atoms: _574  and  _575
REMARK  230  A    between atoms: _574  and  _577
REMARK  231  A    between atoms: _580  and  _582
REMARK  232  A    between atoms: _582  and  _583
REMARK  233  A    between atoms: _582  and  _585
REMARK  234  A    between atoms: _585  and  _586
REMARK  235  A    between atoms: _588  and  _590
REMARK  236  A    between atoms: _590  and  _591
REMARK  237  A    between atoms: _590  and  _593
REMARK  238  A    between atoms: _596  and  _598
REMARK  239  A    between atoms: _598  and  _599
REMARK  240  A    between atoms: _598  and  _601
REMARK  241  A    between atoms: _601  and  _602
REMARK  242  A    between atoms: _602  and  _603
REMARK  243  A    between atoms: _603  and  _604
REMARK  244  A    between atoms: _613  and  _615
REMARK  245  A    between atoms: _615  and  _616
REMARK  246  A    between atoms: _615  and  _618
REMARK  247  A    between atoms: _618  and  _619
REMARK  248  A    between atoms: _629  and  _631
REMARK  249  A    between atoms: _631  and  _632
REMARK  250  A    between atoms: _631  and  _634
REMARK  251  A    between atoms: _634  and  _635
REMARK  252  A    between atoms: _640  and  _641
REMARK  253  A    between atoms: _643  and  _645
REMARK  254  A    between atoms: _645  and  _646
REMARK  255  A    between atoms: _645  and  _648
REMARK  256  A    between atoms: _648  and  _649
REMARK  257  A    between atoms: _649  and  _650
REMARK  258  A    between atoms: _650  and  _651
REMARK  259  A    between atoms: _661  and  _662
REMARK  260  A    between atoms: _667  and  _669
REMARK  261  A    between atoms: _669  and  _670
REMARK  262  A    between atoms: _672  and  _674
REMARK  263  A    between atoms: _674  and  _675
REMARK  264  A    between atoms: _678  and  _679
REMARK  265  A    between atoms: _684  and  _686
REMARK  266  A    between atoms: _686  and  _687
REMARK  267  A    between atoms: _686  and  _689
REMARK  268  A    between atoms: _689  and  _690
REMARK  269  A    between atoms: _693  and  _695
REMARK  270  A    between atoms: _695  and  _696
REMARK  271  A    between atoms: _695  and  _698
REMARK  272  A    between atoms: _698  and  _699
REMARK  273  A    between atoms: _702  and  _704
REMARK  274  A    between atoms: _704  and  _705
REMARK  275  A    between atoms: _708  and  _710
REMARK  276  A    between atoms: _710  and  _711
REMARK  277  A    between atoms: _710  and  _713
REMARK  278  A    between atoms: _713  and  _714
REMARK  279  A    between atoms: _714  and  _715
REMARK  280  A    between atoms: _720  and  _722
REMARK  281  A    between atoms: _722  and  _723
REMARK  282  A    between atoms: _722  and  _725
REMARK                            x       y       z     vdW  Elec       q    Type
REMARK                         _______ _______ _______ _____ _____    ______ ____
ROOT
ATOM      1  O   HOH     1     -14.355  47.562   8.936  0.00  0.00    +0.000 OA
ENDROOT
TORSDOF 0
REMARK  Name = ../refined-set-2016/4w97/4w97_pocket.pdb
REMARK  282 active torsions:
REMARK  status: ('A' for Active; 'I' for Inactive)
REMARK    1  A    between atoms: _1  and  _3
REMARK    2  A    between atoms: _3  and  _4
REMARK    3  A    between atoms: _3  and  _6
REMARK    4  A    between atoms: _6  and  _7
REMARK    5  A    between atoms: _10  and  _12
REMARK    6  A    between atoms: _12  and  _13
REMARK    7  A    between atoms: _12  and  _15
REMARK    8  A    between atoms: _15  and  _16
REMARK    9  A    between atoms: _22  and  _24
REMARK   10  A    between atoms: _24  and  _25
REMARK   11  A    between atoms: _24  and  _27
REMARK   12  A    between atoms: _27  and  _28
REMARK   13  A    between atoms: _31  and  _33
REMARK   14  A    between atoms: _33  and  _34
REMARK   15  A    between atoms: _33  and  _36
REMARK   16  A    between atoms: _36  and  _37
REMARK   17  A    between atoms: _40  and  _42
REMARK   18  A    between atoms: _42  and  _43
REMARK   19  A    between atoms: _42  and  _45
REMARK   20  A    between atoms: _45  and  _46
REMARK   21  A    between atoms: _52  and  _54
REMARK   22  A    between atoms: _54  and  _55
REMARK   23  A    between atoms: _54  and  _57
REMARK   24  A    between atoms: _57  and  _58
REMARK   25  A    between atoms: _63  and  _64
REMARK   26  A    between atoms: _66  and  _68
REMARK   27  A    between atoms: _68  and  _69
REMARK   28  A    between atoms: _68  and  _71
REMARK   29  A    between atoms: _71  and  _72
REMARK   30  A    between atoms: _74  and  _76
REMARK   31  A    between atoms: _76  and  _77
REMARK   32  A    between atoms: _80  and  _82
REMARK   33  A    between atoms: _82  and  _83
REMARK   34  A    between atoms: _82  and  _85
REMARK   35  A    between atoms: _85  and  _86
REMARK   36  A    between atoms: _89  and  _91
REMARK   37  A    between atoms: _91  and  _92
REMARK   38  A    between atoms: _91  and  _94
REMARK   39  A    between atoms: _94  and  _95
REMARK   40  A    between atoms: _95  and  _96
REMARK   41  A    between atoms: _101  and  _103
REMARK   42  A    between atoms: _103  and  _104
REMARK   43  A    between atoms: _103  and  _106
REMARK   44  A    between atoms: _109  and  _111
REMARK   45  A    between atoms: _111  and  _112
REMARK   46  A    between atoms: _111  and  _114
REMARK   47  A    between atoms: _117  and  _119
REMARK   48  A    between atoms: _119  and  _120
REMARK   49  A    between atoms: _119  and  _122
REMARK   50  A    between atoms: _122  and  _123
REMARK   51  A    between atoms: _126  and  _128
REMARK   52  A    between atoms: _128  and  _129
REMARK   53  A    between atoms: _128  and  _131
REMARK   54  A    between atoms: _131  and  _132
REMARK   55  A    between atoms: _137  and  _138
REMARK   56  A    between atoms: _140  and  _142
REMARK   57  A    between atoms: _142  and  _143
REMARK   58  A    between atoms: _142  and  _145
REMARK   59  A    between atoms: _145  and  _146
REMARK   60  A    between atoms: _146  and  _147
REMARK   61  A    between atoms: _152  and  _154
REMARK   62  A    between atoms: _154  and  _155
REMARK   63  A    between atoms: _154  and  _157
REMARK   64  A    between atoms: _157  and  _158
REMARK   65  A    between atoms: _161  and  _163
REMARK   66  A    between atoms: _163  and  _164
REMARK   67  A    between atoms: _163  and  _166
REMARK   68  A    between atoms: _166  and  _167
REMARK   69  A    between atoms: _167  and  _168
REMARK   70  A    between atoms: _171  and  _173
REMARK   71  A    between atoms: _173  and  _174
REMARK   72  A    between atoms: _177  and  _179
REMARK   73  A    between atoms: _179  and  _180
REMARK   74  A    between atoms: _179  and  _182
REMARK   75  A    between atoms: _182  and  _183
REMARK   76  A    between atoms: _183  and  _184
REMARK   77  A    between atoms: _189  and  _191
REMARK   78  A    between atoms: _191  and  _192
REMARK   79  A    between atoms: _191  and  _194
REMARK   80  A    between atoms: _194  and  _195
REMARK   81  A    between atoms: _195  and  _196
REMARK   82  A    between atoms: _196  and  _197
REMARK   83  A    between atoms: _206  and  _208
REMARK   84  A    between atoms: _208  and  _209
REMARK   85  A    between atoms: _212  and  _214
REMARK   86  A    between atoms: _214  and  _215
REMARK   87  A    between atoms: _214  and  _217
REMARK   88  A    between atoms: _217  and  _218
REMARK   89  A    between atoms: _223  and  _224
REMARK   90  A    between atoms: _226  and  _228
REMARK   91  A    between atoms: _228  and  _229
REMARK   92  A    between atoms: _228  and  _231
REMARK   93  A    between atoms: _231  and  _232
REMARK   94  A    between atoms: _235  and  _237
REMARK   95  A    between atoms: _237  and  _238
REMARK   96  A    between atoms: _237  and  _240
REMARK   97  A    between atoms: _240  and  _241
REMARK   98  A    between atoms: _241  and  _242
REMARK   99  A    between atoms: _245  and  _247
REMARK  100  A    between atoms: _247  and  _248
REMARK  101  A    between atoms: _247  and  _250
REMARK  102  A    between atoms: _250  and  _251
REMARK  103  A    between atoms: _254  and  _256
REMARK  104  A    between atoms: _256  and  _257
REMARK  105  A    between atoms: _256  and  _259
REMARK  106  A    between atoms: _259  and  _260
REMARK  107  A    between atoms: _260  and  _261
REMARK  108  A    between atoms: _261  and  _262
REMARK  109  A    between atoms: _271  and  _273
REMARK  110  A    between atoms: _273  and  _274
REMARK  111  A    between atoms: _273  and  _276
REMARK  112  A    between atoms: _276  and  _277
REMARK  113  A    between atoms: _282  and  _284
REMARK  114  A    between atoms: _284  and  _285
REMARK  115  A    between atoms: _284  and  _287
REMARK  116  A    between atoms: _287  and  _288
REMARK  117  A    between atoms: _288  and  _289
REMARK  118  A    between atoms: _289  and  _290
REMARK  119  A    between atoms: _290  and  _291
REMARK  120  A    between atoms: _295  and  _297
REMARK  121  A    between atoms: _297  and  _298
REMARK  122  A    between atoms: _297  and  _300
REMARK  123  A    between atoms: _300  and  _301
REMARK  124  A    between atoms: _301  and  _302
REMARK  125  A    between atoms: _307  and  _309
REMARK  126  A    between atoms: _309  and  _310
REMARK  127  A    between atoms: _309  and  _312
REMARK  128  A    between atoms: _312  and  _313
REMARK  129  A    between atoms: _313  and  _314
REMARK  130  A    between atoms: _319  and  _321
REMARK  131  A    between atoms: _321  and  _322
REMARK  132  A    between atoms: _321  and  _324
REMARK  133  A    between atoms: _324  and  _325
REMARK  134  A    between atoms: _325  and  _326
REMARK  135  A    between atoms: _326  and  _327
REMARK  136  A    between atoms: _336  and  _338
REMARK  137  A    between atoms: _338  and  _339
REMARK  138  A    between atoms: _338  and  _341
REMARK  139  A    between atoms: _341  and  _342
REMARK  140  A    between atoms: _342  and  _343
REMARK  141  A    between atoms: _345  and  _347
REMARK  142  A    between atoms: _347  and  _348
REMARK  143  A    between atoms: _347  and  _350
REMARK  144  A    between atoms: _350  and  _351
REMARK  145  A    between atoms: _361  and  _363
REMARK  146  A    between atoms: _363  and  _364
REMARK  147  A    between atoms: _363  and  _366
REMARK  148  A    between atoms: _366  and  _367
REMARK  149  A    between atoms: _370  and  _372
REMARK  150  A    between atoms: _372  and  _373
REMARK  151  A    between atoms: _372  and  _375
REMARK  152  A    between atoms: _375  and  _376
REMARK  153  A    between atoms: _379  and  _381
REMARK  154  A    between atoms: _381  and  _382
REMARK  155  A    between atoms: _381  and  _384
REMARK  156  A    between atoms: _384  and  _385
REMARK  157  A    between atoms: _388  and  _390
REMARK  158  A    between atoms: _390  and  _391
REMARK  159  A    between atoms: _390  and  _393
REMARK  160  A    between atoms: _393  and  _394
REMARK  161  A    between atoms: _399  and  _400
REMARK  162  A    between atoms: _402  and  _404
REMARK  163  A    between atoms: _404  and  _405
REMARK  164  A    between atoms: _404  and  _407
REMARK  165  A    between atoms: _407  and  _408
REMARK  166  A    between atoms: _408  and  _409
REMARK  167  A    between atoms: _409  and  _410
REMARK  168  A    between atoms: _419  and  _421
REMARK  169  A    between atoms: _421  and  _422
REMARK  170  A    between atoms: _421  and  _424
REMARK  171  A    between atoms: _424  and  _425
REMARK  172  A    between atoms: _431  and  _433
REMARK  173  A    between atoms: _433  and  _434
REMARK  174  A    between atoms: _433  and  _436
REMARK  175  A    between atoms: _436  and  _437
REMARK  176  A    between atoms: _440  and  _442
REMARK  177  A    between atoms: _442  and  _443
REMARK  178  A    between atoms: _442  and  _445
REMARK  179  A    between atoms: _445  and  _446
REMARK  180  A    between atoms: _446  and  _447
REMARK  181  A    between atoms: _447  and  _448
REMARK  182  A    between atoms: _457  and  _459
REMARK  183  A    between atoms: _459  and  _460
REMARK  184  A    between atoms: _459  and  _462
REMARK  185  A    between atoms: _462  and  _463
REMARK  186  A    between atoms: _466  and  _468
REMARK  187  A    between atoms: _468  and  _469
REMARK  188  A    between atoms: _468  and  _471
REMARK  189  A    between atoms: _471  and  _472
REMARK  190  A    between atoms: _475  and  _477
REMARK  191  A    between atoms: _477  and  _478
REMARK  192  A    between atoms: _477  and  _480
REMARK  193  A    between atoms: _480  and  _481
REMARK  194  A    between atoms: _484  and  _486
REMARK  195  A    between atoms: _486  and  _487
REMARK  196  A    between atoms: _486  and  _489
REMARK  197  A    between atoms: _489  and  _490
REMARK  198  A    between atoms: _500  and  _502
REMARK  199  A    between atoms: _502  and  _503
REMARK  200  A    between atoms: _502  and  _505
REMARK  201  A    between atoms: _508  and  _510
REMARK  202  A    between atoms: _510  and  _511
REMARK  203  A    between atoms: _510  and  _513
REMARK  204  A    between atoms: _513  and  _514
REMARK  205  A    between atoms: _516  and  _518
REMARK  206  A    between atoms: _518  and  _519
REMARK  207  A    between atoms: _518  and  _521
REMARK  208  A    between atoms: _524  and  _526
REMARK  209  A    between atoms: _526  and  _527
REMARK  210  A    between atoms: _526  and  _529
REMARK  211  A    between atoms: _529  and  _530
REMARK  212  A    between atoms: _530  and  _531
REMARK  213  A    between atoms: _531  and  _532
REMARK  214  A    between atoms: _541  and  _543
REMARK  215  A    between atoms: _543  and  _544
REMARK  216  A    between atoms: _543  and  _546
REMARK  217  A    between atoms: _546  and  _547
REMARK  218  A    between atoms: _547  and  _548
REMARK  219  A    between atoms: _551  and  _553
REMARK  220  A    between atoms: _553  and  _554
REMARK  221  A    between atoms: _553  and  _556
REMARK  222  A    between atoms: _556  and  _557
REMARK  223  A    between atoms: _557  and  _558
REMARK  224  A    between atoms: _563  and  _565
REMARK  225  A    between atoms: _565  and  _566
REMARK  226  A    between atoms: _565  and  _568
REMARK  227  A    between atoms: _568  and  _569
REMARK  228  A    between atoms: _572  and  _574
REMARK  229  A    between atoms: _574  and  _575
REMARK  230  A    between atoms: _574  and  _577
REMARK  231  A    between atoms: _580  and  _582
REMARK  232  A    between atoms: _582  and  _583
REMARK  233  A    between atoms: _582  and  _585
REMARK  234  A    between atoms: _585  and  _586
REMARK  235  A    between atoms: _588  and  _590
REMARK  236  A    between atoms: _590  and  _591
REMARK  237  A    between atoms: _590  and  _593
REMARK  238  A    between atoms: _596  and  _598
REMARK  239  A    between atoms: _598  and  _599
REMARK  240  A    between atoms: _598  and  _601
REMARK  241  A    between atoms: _601  and  _602
REMARK  242  A    between atoms: _602  and  _603
REMARK  243  A    between atoms: _603  and  _604
REMARK  244  A    between atoms: _613  and  _615
REMARK  245  A    between atoms: _615  and  _616
REMARK  246  A    between atoms: _615  and  _618
REMARK  247  A    between atoms: _618  and  _619
REMARK  248  A    between atoms: _629  and  _631
REMARK  249  A    between atoms: _631  and  _632
REMARK  250  A    between atoms: _631  and  _634
REMARK  251  A    between atoms: _634  and  _635
REMARK  252  A    between atoms: _640  and  _641
REMARK  253  A    between atoms: _643  and  _645
REMARK  254  A    between atoms: _645  and  _646
REMARK  255  A    between atoms: _645  and  _648
REMARK  256  A    between atoms: _648  and  _649
REMARK  257  A    between atoms: _649  and  _650
REMARK  258  A    between atoms: _650  and  _651
REMARK  259  A    between atoms: _661  and  _662
REMARK  260  A    between atoms: _667  and  _669
REMARK  261  A    between atoms: _669  and  _670
REMARK  262  A    between atoms: _672  and  _674
REMARK  263  A    between atoms: _674  and  _675
REMARK  264  A    between atoms: _678  and  _679
REMARK  265  A    between atoms: _684  and  _686
REMARK  266  A    between atoms: _686  and  _687
REMARK  267  A    between atoms: _686  and  _689
REMARK  268  A    between atoms: _689  and  _690
REMARK  269  A    between atoms: _693  and  _695
REMARK  270  A    between atoms: _695  and  _696
REMARK  271  A    between atoms: _695  and  _698
REMARK  272  A    between atoms: _698  and  _699
REMARK  273  A    between atoms: _702  and  _704
REMARK  274  A    between atoms: _704  and  _705
REMARK  275  A    between atoms: _708  and  _710
REMARK  276  A    between atoms: _710  and  _711
REMARK  277  A    between atoms: _710  and  _713
REMARK  278  A    between atoms: _713  and  _714
REMARK  279  A    between atoms: _714  and  _715
REMARK  280  A    between atoms: _720  and  _722
REMARK  281  A    between atoms: _722  and  _723
REMARK  282  A    between atoms: _722  and  _725
REMARK                            x       y       z     vdW  Elec       q    Type
REMARK                         _______ _______ _______ _____ _____    ______ ____
ROOT
ATOM      1  O   HOH     1     -17.949  46.128  17.352  0.00  0.00    +0.000 OA
ENDROOT
TORSDOF 0
REMARK  Name = ../refined-set-2016/4w97/4w97_pocket.pdb
REMARK  282 active torsions:
REMARK  status: ('A' for Active; 'I' for Inactive)
REMARK    1  A    between atoms: _1  and  _3
REMARK    2  A    between atoms: _3  and  _4
REMARK    3  A    between atoms: _3  and  _6
REMARK    4  A    between atoms: _6  and  _7
REMARK    5  A    between atoms: _10  and  _12
REMARK    6  A    between atoms: _12  and  _13
REMARK    7  A    between atoms: _12  and  _15
REMARK    8  A    between atoms: _15  and  _16
REMARK    9  A    between atoms: _22  and  _24
REMARK   10  A    between atoms: _24  and  _25
REMARK   11  A    between atoms: _24  and  _27
REMARK   12  A    between atoms: _27  and  _28
REMARK   13  A    between atoms: _31  and  _33
REMARK   14  A    between atoms: _33  and  _34
REMARK   15  A    between atoms: _33  and  _36
REMARK   16  A    between atoms: _36  and  _37
REMARK   17  A    between atoms: _40  and  _42
REMARK   18  A    between atoms: _42  and  _43
REMARK   19  A    between atoms: _42  and  _45
REMARK   20  A    between atoms: _45  and  _46
REMARK   21  A    between atoms: _52  and  _54
REMARK   22  A    between atoms: _54  and  _55
REMARK   23  A    between atoms: _54  and  _57
REMARK   24  A    between atoms: _57  and  _58
REMARK   25  A    between atoms: _63  and  _64
REMARK   26  A    between atoms: _66  and  _68
REMARK   27  A    between atoms: _68  and  _69
REMARK   28  A    between atoms: _68  and  _71
REMARK   29  A    between atoms: _71  and  _72
REMARK   30  A    between atoms: _74  and  _76
REMARK   31  A    between atoms: _76  and  _77
REMARK   32  A    between atoms: _80  and  _82
REMARK   33  A    between atoms: _82  and  _83
REMARK   34  A    between atoms: _82  and  _85
REMARK   35  A    between atoms: _85  and  _86
REMARK   36  A    between atoms: _89  and  _91
REMARK   37  A    between atoms: _91  and  _92
REMARK   38  A    between atoms: _91  and  _94
REMARK   39  A    between atoms: _94  and  _95
REMARK   40  A    between atoms: _95  and  _96
REMARK   41  A    between atoms: _101  and  _103
REMARK   42  A    between atoms: _103  and  _104
REMARK   43  A    between atoms: _103  and  _106
REMARK   44  A    between atoms: _109  and  _111
REMARK   45  A    between atoms: _111  and  _112
REMARK   46  A    between atoms: _111  and  _114
REMARK   47  A    between atoms: _117  and  _119
REMARK   48  A    between atoms: _119  and  _120
REMARK   49  A    between atoms: _119  and  _122
REMARK   50  A    between atoms: _122  and  _123
REMARK   51  A    between atoms: _126  and  _128
REMARK   52  A    between atoms: _128  and  _129
REMARK   53  A    between atoms: _128  and  _131
REMARK   54  A    between atoms: _131  and  _132
REMARK   55  A    between atoms: _137  and  _138
REMARK   56  A    between atoms: _140  and  _142
REMARK   57  A    between atoms: _142  and  _143
REMARK   58  A    between atoms: _142  and  _145
REMARK   59  A    between atoms: _145  and  _146
REMARK   60  A    between atoms: _146  and  _147
REMARK   61  A    between atoms: _152  and  _154
REMARK   62  A    between atoms: _154  and  _155
REMARK   63  A    between atoms: _154  and  _157
REMARK   64  A    between atoms: _157  and  _158
REMARK   65  A    between atoms: _161  and  _163
REMARK   66  A    between atoms: _163  and  _164
REMARK   67  A    between atoms: _163  and  _166
REMARK   68  A    between atoms: _166  and  _167
REMARK   69  A    between atoms: _167  and  _168
REMARK   70  A    between atoms: _171  and  _173
REMARK   71  A    between atoms: _173  and  _174
REMARK   72  A    between atoms: _177  and  _179
REMARK   73  A    between atoms: _179  and  _180
REMARK   74  A    between atoms: _179  and  _182
REMARK   75  A    between atoms: _182  and  _183
REMARK   76  A    between atoms: _183  and  _184
REMARK   77  A    between atoms: _189  and  _191
REMARK   78  A    between atoms: _191  and  _192
REMARK   79  A    between atoms: _191  and  _194
REMARK   80  A    between atoms: _194  and  _195
REMARK   81  A    between atoms: _195  and  _196
REMARK   82  A    between atoms: _196  and  _197
REMARK   83  A    between atoms: _206  and  _208
REMARK   84  A    between atoms: _208  and  _209
REMARK   85  A    between atoms: _212  and  _214
REMARK   86  A    between atoms: _214  and  _215
REMARK   87  A    between atoms: _214  and  _217
REMARK   88  A    between atoms: _217  and  _218
REMARK   89  A    between atoms: _223  and  _224
REMARK   90  A    between atoms: _226  and  _228
REMARK   91  A    between atoms: _228  and  _229
REMARK   92  A    between atoms: _228  and  _231
REMARK   93  A    between atoms: _231  and  _232
REMARK   94  A    between atoms: _235  and  _237
REMARK   95  A    between atoms: _237  and  _238
REMARK   96  A    between atoms: _237  and  _240
REMARK   97  A    between atoms: _240  and  _241
REMARK   98  A    between atoms: _241  and  _242
REMARK   99  A    between atoms: _245  and  _247
REMARK  100  A    between atoms: _247  and  _248
REMARK  101  A    between atoms: _247  and  _250
REMARK  102  A    between atoms: _250  and  _251
REMARK  103  A    between atoms: _254  and  _256
REMARK  104  A    between atoms: _256  and  _257
REMARK  105  A    between atoms: _256  and  _259
REMARK  106  A    between atoms: _259  and  _260
REMARK  107  A    between atoms: _260  and  _261
REMARK  108  A    between atoms: _261  and  _262
REMARK  109  A    between atoms: _271  and  _273
REMARK  110  A    between atoms: _273  and  _274
REMARK  111  A    between atoms: _273  and  _276
REMARK  112  A    between atoms: _276  and  _277
REMARK  113  A    between atoms: _282  and  _284
REMARK  114  A    between atoms: _284  and  _285
REMARK  115  A    between atoms: _284  and  _287
REMARK  116  A    between atoms: _287  and  _288
REMARK  117  A    between atoms: _288  and  _289
REMARK  118  A    between atoms: _289  and  _290
REMARK  119  A    between atoms: _290  and  _291
REMARK  120  A    between atoms: _295  and  _297
REMARK  121  A    between atoms: _297  and  _298
REMARK  122  A    between atoms: _297  and  _300
REMARK  123  A    between atoms: _300  and  _301
REMARK  124  A    between atoms: _301  and  _302
REMARK  125  A    between atoms: _307  and  _309
REMARK  126  A    between atoms: _309  and  _310
REMARK  127  A    between atoms: _309  and  _312
REMARK  128  A    between atoms: _312  and  _313
REMARK  129  A    between atoms: _313  and  _314
REMARK  130  A    between atoms: _319  and  _321
REMARK  131  A    between atoms: _321  and  _322
REMARK  132  A    between atoms: _321  and  _324
REMARK  133  A    between atoms: _324  and  _325
REMARK  134  A    between atoms: _325  and  _326
REMARK  135  A    between atoms: _326  and  _327
REMARK  136  A    between atoms: _336  and  _338
REMARK  137  A    between atoms: _338  and  _339
REMARK  138  A    between atoms: _338  and  _341
REMARK  139  A    between atoms: _341  and  _342
REMARK  140  A    between atoms: _342  and  _343
REMARK  141  A    between atoms: _345  and  _347
REMARK  142  A    between atoms: _347  and  _348
REMARK  143  A    between atoms: _347  and  _350
REMARK  144  A    between atoms: _350  and  _351
REMARK  145  A    between atoms: _361  and  _363
REMARK  146  A    between atoms: _363  and  _364
REMARK  147  A    between atoms: _363  and  _366
REMARK  148  A    between atoms: _366  and  _367
REMARK  149  A    between atoms: _370  and  _372
REMARK  150  A    between atoms: _372  and  _373
REMARK  151  A    between atoms: _372  and  _375
REMARK  152  A    between atoms: _375  and  _376
REMARK  153  A    between atoms: _379  and  _381
REMARK  154  A    between atoms: _381  and  _382
REMARK  155  A    between atoms: _381  and  _384
REMARK  156  A    between atoms: _384  and  _385
REMARK  157  A    between atoms: _388  and  _390
REMARK  158  A    between atoms: _390  and  _391
REMARK  159  A    between atoms: _390  and  _393
REMARK  160  A    between atoms: _393  and  _394
REMARK  161  A    between atoms: _399  and  _400
REMARK  162  A    between atoms: _402  and  _404
REMARK  163  A    between atoms: _404  and  _405
REMARK  164  A    between atoms: _404  and  _407
REMARK  165  A    between atoms: _407  and  _408
REMARK  166  A    between atoms: _408  and  _409
REMARK  167  A    between atoms: _409  and  _410
REMARK  168  A    between atoms: _419  and  _421
REMARK  169  A    between atoms: _421  and  _422
REMARK  170  A    between atoms: _421  and  _424
REMARK  171  A    between atoms: _424  and  _425
REMARK  172  A    between atoms: _431  and  _433
REMARK  173  A    between atoms: _433  and  _434
REMARK  174  A    between atoms: _433  and  _436
REMARK  175  A    between atoms: _436  and  _437
REMARK  176  A    between atoms: _440  and  _442
REMARK  177  A    between atoms: _442  and  _443
REMARK  178  A    between atoms: _442  and  _445
REMARK  179  A    between atoms: _445  and  _446
REMARK  180  A    between atoms: _446  and  _447
REMARK  181  A    between atoms: _447  and  _448
REMARK  182  A    between atoms: _457  and  _459
REMARK  183  A    between atoms: _459  and  _460
REMARK  184  A    between atoms: _459  and  _462
REMARK  185  A    between atoms: _462  and  _463
REMARK  186  A    between atoms: _466  and  _468
REMARK  187  A    between atoms: _468  and  _469
REMARK  188  A    between atoms: _468  and  _471
REMARK  189  A    between atoms: _471  and  _472
REMARK  190  A    between atoms: _475  and  _477
REMARK  191  A    between atoms: _477  and  _478
REMARK  192  A    between atoms: _477  and  _480
REMARK  193  A    between atoms: _480  and  _481
REMARK  194  A    between atoms: _484  and  _486
REMARK  195  A    between atoms: _486  and  _487
REMARK  196  A    between atoms: _486  and  _489
REMARK  197  A    between atoms: _489  and  _490
REMARK  198  A    between atoms: _500  and  _502
REMARK  199  A    between atoms: _502  and  _503
REMARK  200  A    between atoms: _502  and  _505
REMARK  201  A    between atoms: _508  and  _510
REMARK  202  A    between atoms: _510  and  _511
REMARK  203  A    between atoms: _510  and  _513
REMARK  204  A    between atoms: _513  and  _514
REMARK  205  A    between atoms: _516  and  _518
REMARK  206  A    between atoms: _518  and  _519
REMARK  207  A    between atoms: _518  and  _521
REMARK  208  A    between atoms: _524  and  _526
REMARK  209  A    between atoms: _526  and  _527
REMARK  210  A    between atoms: _526  and  _529
REMARK  211  A    between atoms: _529  and  _530
REMARK  212  A    between atoms: _530  and  _531
REMARK  213  A    between atoms: _531  and  _532
REMARK  214  A    between atoms: _541  and  _543
REMARK  215  A    between atoms: _543  and  _544
REMARK  216  A    between atoms: _543  and  _546
REMARK  217  A    between atoms: _546  and  _547
REMARK  218  A    between atoms: _547  and  _548
REMARK  219  A    between atoms: _551  and  _553
REMARK  220  A    between atoms: _553  and  _554
REMARK  221  A    between atoms: _553  and  _556
REMARK  222  A    between atoms: _556  and  _557
REMARK  223  A    between atoms: _557  and  _558
REMARK  224  A    between atoms: _563  and  _565
REMARK  225  A    between atoms: _565  and  _566
REMARK  226  A    between atoms: _565  and  _568
REMARK  227  A    between atoms: _568  and  _569
REMARK  228  A    between atoms: _572  and  _574
REMARK  229  A    between atoms: _574  and  _575
REMARK  230  A    between atoms: _574  and  _577
REMARK  231  A    between atoms: _580  and  _582
REMARK  232  A    between atoms: _582  and  _583
REMARK  233  A    between atoms: _582  and  _585
REMARK  234  A    between atoms: _585  and  _586
REMARK  235  A    between atoms: _588  and  _590
REMARK  236  A    between atoms: _590  and  _591
REMARK  237  A    between atoms: _590  and  _593
REMARK  238  A    between atoms: _596  and  _598
REMARK  239  A    between atoms: _598  and  _599
REMARK  240  A    between atoms: _598  and  _601
REMARK  241  A    between atoms: _601  and  _602
REMARK  242  A    between atoms: _602  and  _603
REMARK  243  A    between atoms: _603  and  _604
REMARK  244  A    between atoms: _613  and  _615
REMARK  245  A    between atoms: _615  and  _616
REMARK  246  A    between atoms: _615  and  _618
REMARK  247  A    between atoms: _618  and  _619
REMARK  248  A    between atoms: _629  and  _631
REMARK  249  A    between atoms: _631  and  _632
REMARK  250  A    between atoms: _631  and  _634
REMARK  251  A    between atoms: _634  and  _635
REMARK  252  A    between atoms: _640  and  _641
REMARK  253  A    between atoms: _643  and  _645
REMARK  254  A    between atoms: _645  and  _646
REMARK  255  A    between atoms: _645  and  _648
REMARK  256  A    between atoms: _648  and  _649
REMARK  257  A    between atoms: _649  and  _650
REMARK  258  A    between atoms: _650  and  _651
REMARK  259  A    between atoms: _661  and  _662
REMARK  260  A    between atoms: _667  and  _669
REMARK  261  A    between atoms: _669  and  _670
REMARK  262  A    between atoms: _672  and  _674
REMARK  263  A    between atoms: _674  and  _675
REMARK  264  A    between atoms: _678  and  _679
REMARK  265  A    between atoms: _684  and  _686
REMARK  266  A    between atoms: _686  and  _687
REMARK  267  A    between atoms: _686  and  _689
REMARK  268  A    between atoms: _689  and  _690
REMARK  269  A    between atoms: _693  and  _695
REMARK  270  A    between atoms: _695  and  _696
REMARK  271  A    between atoms: _695  and  _698
REMARK  272  A    between atoms: _698  and  _699
REMARK  273  A    between atoms: _702  and  _704
REMARK  274  A    between atoms: _704  and  _705
REMARK  275  A    between atoms: _708  and  _710
REMARK  276  A    between atoms: _710  and  _711
REMARK  277  A    between atoms: _710  and  _713
REMARK  278  A    between atoms: _713  and  _714
REMARK  279  A    between atoms: _714  and  _715
REMARK  280  A    between atoms: _720  and  _722
REMARK  281  A    between atoms: _722  and  _723
REMARK  282  A    between atoms: _722  and  _725
REMARK                            x       y       z     vdW  Elec       q    Type
REMARK                         _______ _______ _______ _____ _____    ______ ____
ROOT
ATOM      1  O   HOH     1     -11.739  37.292  -2.569  0.00  0.00    +0.000 OA
ENDROOT
TORSDOF 0
REMARK  Name = ../refined-set-2016/4w97/4w97_pocket.pdb
REMARK  282 active torsions:
REMARK  status: ('A' for Active; 'I' for Inactive)
REMARK    1  A    between atoms: _1  and  _3
REMARK    2  A    between atoms: _3  and  _4
REMARK    3  A    between atoms: _3  and  _6
REMARK    4  A    between atoms: _6  and  _7
REMARK    5  A    between atoms: _10  and  _12
REMARK    6  A    between atoms: _12  and  _13
REMARK    7  A    between atoms: _12  and  _15
REMARK    8  A    between atoms: _15  and  _16
REMARK    9  A    between atoms: _22  and  _24
REMARK   10  A    between atoms: _24  and  _25
REMARK   11  A    between atoms: _24  and  _27
REMARK   12  A    between atoms: _27  and  _28
REMARK   13  A    between atoms: _31  and  _33
REMARK   14  A    between atoms: _33  and  _34
REMARK   15  A    between atoms: _33  and  _36
REMARK   16  A    between atoms: _36  and  _37
REMARK   17  A    between atoms: _40  and  _42
REMARK   18  A    between atoms: _42  and  _43
REMARK   19  A    between atoms: _42  and  _45
REMARK   20  A    between atoms: _45  and  _46
REMARK   21  A    between atoms: _52  and  _54
REMARK   22  A    between atoms: _54  and  _55
REMARK   23  A    between atoms: _54  and  _57
REMARK   24  A    between atoms: _57  and  _58
REMARK   25  A    between atoms: _63  and  _64
REMARK   26  A    between atoms: _66  and  _68
REMARK   27  A    between atoms: _68  and  _69
REMARK   28  A    between atoms: _68  and  _71
REMARK   29  A    between atoms: _71  and  _72
REMARK   30  A    between atoms: _74  and  _76
REMARK   31  A    between atoms: _76  and  _77
REMARK   32  A    between atoms: _80  and  _82
REMARK   33  A    between atoms: _82  and  _83
REMARK   34  A    between atoms: _82  and  _85
REMARK   35  A    between atoms: _85  and  _86
REMARK   36  A    between atoms: _89  and  _91
REMARK   37  A    between atoms: _91  and  _92
REMARK   38  A    between atoms: _91  and  _94
REMARK   39  A    between atoms: _94  and  _95
REMARK   40  A    between atoms: _95  and  _96
REMARK   41  A    between atoms: _101  and  _103
REMARK   42  A    between atoms: _103  and  _104
REMARK   43  A    between atoms: _103  and  _106
REMARK   44  A    between atoms: _109  and  _111
REMARK   45  A    between atoms: _111  and  _112
REMARK   46  A    between atoms: _111  and  _114
REMARK   47  A    between atoms: _117  and  _119
REMARK   48  A    between atoms: _119  and  _120
REMARK   49  A    between atoms: _119  and  _122
REMARK   50  A    between atoms: _122  and  _123
REMARK   51  A    between atoms: _126  and  _128
REMARK   52  A    between atoms: _128  and  _129
REMARK   53  A    between atoms: _128  and  _131
REMARK   54  A    between atoms: _131  and  _132
REMARK   55  A    between atoms: _137  and  _138
REMARK   56  A    between atoms: _140  and  _142
REMARK   57  A    between atoms: _142  and  _143
REMARK   58  A    between atoms: _142  and  _145
REMARK   59  A    between atoms: _145  and  _146
REMARK   60  A    between atoms: _146  and  _147
REMARK   61  A    between atoms: _152  and  _154
REMARK   62  A    between atoms: _154  and  _155
REMARK   63  A    between atoms: _154  and  _157
REMARK   64  A    between atoms: _157  and  _158
REMARK   65  A    between atoms: _161  and  _163
REMARK   66  A    between atoms: _163  and  _164
REMARK   67  A    between atoms: _163  and  _166
REMARK   68  A    between atoms: _166  and  _167
REMARK   69  A    between atoms: _167  and  _168
REMARK   70  A    between atoms: _171  and  _173
REMARK   71  A    between atoms: _173  and  _174
REMARK   72  A    between atoms: _177  and  _179
REMARK   73  A    between atoms: _179  and  _180
REMARK   74  A    between atoms: _179  and  _182
REMARK   75  A    between atoms: _182  and  _183
REMARK   76  A    between atoms: _183  and  _184
REMARK   77  A    between atoms: _189  and  _191
REMARK   78  A    between atoms: _191  and  _192
REMARK   79  A    between atoms: _191  and  _194
REMARK   80  A    between atoms: _194  and  _195
REMARK   81  A    between atoms: _195  and  _196
REMARK   82  A    between atoms: _196  and  _197
REMARK   83  A    between atoms: _206  and  _208
REMARK   84  A    between atoms: _208  and  _209
REMARK   85  A    between atoms: _212  and  _214
REMARK   86  A    between atoms: _214  and  _215
REMARK   87  A    between atoms: _214  and  _217
REMARK   88  A    between atoms: _217  and  _218
REMARK   89  A    between atoms: _223  and  _224
REMARK   90  A    between atoms: _226  and  _228
REMARK   91  A    between atoms: _228  and  _229
REMARK   92  A    between atoms: _228  and  _231
REMARK   93  A    between atoms: _231  and  _232
REMARK   94  A    between atoms: _235  and  _237
REMARK   95  A    between atoms: _237  and  _238
REMARK   96  A    between atoms: _237  and  _240
REMARK   97  A    between atoms: _240  and  _241
REMARK   98  A    between atoms: _241  and  _242
REMARK   99  A    between atoms: _245  and  _247
REMARK  100  A    between atoms: _247  and  _248
REMARK  101  A    between atoms: _247  and  _250
REMARK  102  A    between atoms: _250  and  _251
REMARK  103  A    between atoms: _254  and  _256
REMARK  104  A    between atoms: _256  and  _257
REMARK  105  A    between atoms: _256  and  _259
REMARK  106  A    between atoms: _259  and  _260
REMARK  107  A    between atoms: _260  and  _261
REMARK  108  A    between atoms: _261  and  _262
REMARK  109  A    between atoms: _271  and  _273
REMARK  110  A    between atoms: _273  and  _274
REMARK  111  A    between atoms: _273  and  _276
REMARK  112  A    between atoms: _276  and  _277
REMARK  113  A    between atoms: _282  and  _284
REMARK  114  A    between atoms: _284  and  _285
REMARK  115  A    between atoms: _284  and  _287
REMARK  116  A    between atoms: _287  and  _288
REMARK  117  A    between atoms: _288  and  _289
REMARK  118  A    between atoms: _289  and  _290
REMARK  119  A    between atoms: _290  and  _291
REMARK  120  A    between atoms: _295  and  _297
REMARK  121  A    between atoms: _297  and  _298
REMARK  122  A    between atoms: _297  and  _300
REMARK  123  A    between atoms: _300  and  _301
REMARK  124  A    between atoms: _301  and  _302
REMARK  125  A    between atoms: _307  and  _309
REMARK  126  A    between atoms: _309  and  _310
REMARK  127  A    between atoms: _309  and  _312
REMARK  128  A    between atoms: _312  and  _313
REMARK  129  A    between atoms: _313  and  _314
REMARK  130  A    between atoms: _319  and  _321
REMARK  131  A    between atoms: _321  and  _322
REMARK  132  A    between atoms: _321  and  _324
REMARK  133  A    between atoms: _324  and  _325
REMARK  134  A    between atoms: _325  and  _326
REMARK  135  A    between atoms: _326  and  _327
REMARK  136  A    between atoms: _336  and  _338
REMARK  137  A    between atoms: _338  and  _339
REMARK  138  A    between atoms: _338  and  _341
REMARK  139  A    between atoms: _341  and  _342
REMARK  140  A    between atoms: _342  and  _343
REMARK  141  A    between atoms: _345  and  _347
REMARK  142  A    between atoms: _347  and  _348
REMARK  143  A    between atoms: _347  and  _350
REMARK  144  A    between atoms: _350  and  _351
REMARK  145  A    between atoms: _361  and  _363
REMARK  146  A    between atoms: _363  and  _364
REMARK  147  A    between atoms: _363  and  _366
REMARK  148  A    between atoms: _366  and  _367
REMARK  149  A    between atoms: _370  and  _372
REMARK  150  A    between atoms: _372  and  _373
REMARK  151  A    between atoms: _372  and  _375
REMARK  152  A    between atoms: _375  and  _376
REMARK  153  A    between atoms: _379  and  _381
REMARK  154  A    between atoms: _381  and  _382
REMARK  155  A    between atoms: _381  and  _384
REMARK  156  A    between atoms: _384  and  _385
REMARK  157  A    between atoms: _388  and  _390
REMARK  158  A    between atoms: _390  and  _391
REMARK  159  A    between atoms: _390  and  _393
REMARK  160  A    between atoms: _393  and  _394
REMARK  161  A    between atoms: _399  and  _400
REMARK  162  A    between atoms: _402  and  _404
REMARK  163  A    between atoms: _404  and  _405
REMARK  164  A    between atoms: _404  and  _407
REMARK  165  A    between atoms: _407  and  _408
REMARK  166  A    between atoms: _408  and  _409
REMARK  167  A    between atoms: _409  and  _410
REMARK  168  A    between atoms: _419  and  _421
REMARK  169  A    between atoms: _421  and  _422
REMARK  170  A    between atoms: _421  and  _424
REMARK  171  A    between atoms: _424  and  _425
REMARK  172  A    between atoms: _431  and  _433
REMARK  173  A    between atoms: _433  and  _434
REMARK  174  A    between atoms: _433  and  _436
REMARK  175  A    between atoms: _436  and  _437
REMARK  176  A    between atoms: _440  and  _442
REMARK  177  A    between atoms: _442  and  _443
REMARK  178  A    between atoms: _442  and  _445
REMARK  179  A    between atoms: _445  and  _446
REMARK  180  A    between atoms: _446  and  _447
REMARK  181  A    between atoms: _447  and  _448
REMARK  182  A    between atoms: _457  and  _459
REMARK  183  A    between atoms: _459  and  _460
REMARK  184  A    between atoms: _459  and  _462
REMARK  185  A    between atoms: _462  and  _463
REMARK  186  A    between atoms: _466  and  _468
REMARK  187  A    between atoms: _468  and  _469
REMARK  188  A    between atoms: _468  and  _471
REMARK  189  A    between atoms: _471  and  _472
REMARK  190  A    between atoms: _475  and  _477
REMARK  191  A    between atoms: _477  and  _478
REMARK  192  A    between atoms: _477  and  _480
REMARK  193  A    between atoms: _480  and  _481
REMARK  194  A    between atoms: _484  and  _486
REMARK  195  A    between atoms: _486  and  _487
REMARK  196  A    between atoms: _486  and  _489
REMARK  197  A    between atoms: _489  and  _490
REMARK  198  A    between atoms: _500  and  _502
REMARK  199  A    between atoms: _502  and  _503
REMARK  200  A    between atoms: _502  and  _505
REMARK  201  A    between atoms: _508  and  _510
REMARK  202  A    between atoms: _510  and  _511
REMARK  203  A    between atoms: _510  and  _513
REMARK  204  A    between atoms: _513  and  _514
REMARK  205  A    between atoms: _516  and  _518
REMARK  206  A    between atoms: _518  and  _519
REMARK  207  A    between atoms: _518  and  _521
REMARK  208  A    between atoms: _524  and  _526
REMARK  209  A    between atoms: _526  and  _527
REMARK  210  A    between atoms: _526  and  _529
REMARK  211  A    between atoms: _529  and  _530
REMARK  212  A    between atoms: _530  and  _531
REMARK  213  A    between atoms: _531  and  _532
REMARK  214  A    between atoms: _541  and  _543
REMARK  215  A    between atoms: _543  and  _544
REMARK  216  A    between atoms: _543  and  _546
REMARK  217  A    between atoms: _546  and  _547
REMARK  218  A    between atoms: _547  and  _548
REMARK  219  A    between atoms: _551  and  _553
REMARK  220  A    between atoms: _553  and  _554
REMARK  221  A    between atoms: _553  and  _556
REMARK  222  A    between atoms: _556  and  _557
REMARK  223  A    between atoms: _557  and  _558
REMARK  224  A    between atoms: _563  and  _565
REMARK  225  A    between atoms: _565  and  _566
REMARK  226  A    between atoms: _565  and  _568
REMARK  227  A    between atoms: _568  and  _569
REMARK  228  A    between atoms: _572  and  _574
REMARK  229  A    between atoms: _574  and  _575
REMARK  230  A    between atoms: _574  and  _577
REMARK  231  A    between atoms: _580  and  _582
REMARK  232  A    between atoms: _582  and  _583
REMARK  233  A    between atoms: _582  and  _585
REMARK  234  A    between atoms: _585  and  _586
REMARK  235  A    between atoms: _588  and  _590
REMARK  236  A    between atoms: _590  and  _591
REMARK  237  A    between atoms: _590  and  _593
REMARK  238  A    between atoms: _596  and  _598
REMARK  239  A    between atoms: _598  and  _599
REMARK  240  A    between atoms: _598  and  _601
REMARK  241  A    between atoms: _601  and  _602
REMARK  242  A    between atoms: _602  and  _603
REMARK  243  A    between atoms: _603  and  _604
REMARK  244  A    between atoms: _613  and  _615
REMARK  245  A    between atoms: _615  and  _616
REMARK  246  A    between atoms: _615  and  _618
REMARK  247  A    between atoms: _618  and  _619
REMARK  248  A    between atoms: _629  and  _631
REMARK  249  A    between atoms: _631  and  _632
REMARK  250  A    between atoms: _631  and  _634
REMARK  251  A    between atoms: _634  and  _635
REMARK  252  A    between atoms: _640  and  _641
REMARK  253  A    between atoms: _643  and  _645
REMARK  254  A    between atoms: _645  and  _646
REMARK  255  A    between atoms: _645  and  _648
REMARK  256  A    between atoms: _648  and  _649
REMARK  257  A    between atoms: _649  and  _650
REMARK  258  A    between atoms: _650  and  _651
REMARK  259  A    between atoms: _661  and  _662
REMARK  260  A    between atoms: _667  and  _669
REMARK  261  A    between atoms: _669  and  _670
REMARK  262  A    between atoms: _672  and  _674
REMARK  263  A    between atoms: _674  and  _675
REMARK  264  A    between atoms: _678  and  _679
REMARK  265  A    between atoms: _684  and  _686
REMARK  266  A    between atoms: _686  and  _687
REMARK  267  A    between atoms: _686  and  _689
REMARK  268  A    between atoms: _689  and  _690
REMARK  269  A    between atoms: _693  and  _695
REMARK  270  A    between atoms: _695  and  _696
REMARK  271  A    between atoms: _695  and  _698
REMARK  272  A    between atoms: _698  and  _699
REMARK  273  A    between atoms: _702  and  _704
REMARK  274  A    between atoms: _704  and  _705
REMARK  275  A    between atoms: _708  and  _710
REMARK  276  A    between atoms: _710  and  _711
REMARK  277  A    between atoms: _710  and  _713
REMARK  278  A    between atoms: _713  and  _714
REMARK  279  A    between atoms: _714  and  _715
REMARK  280  A    between atoms: _720  and  _722
REMARK  281  A    between atoms: _722  and  _723
REMARK  282  A    between atoms: _722  and  _725
REMARK                            x       y       z     vdW  Elec       q    Type
REMARK                         _______ _______ _______ _____ _____    ______ ____
ROOT
ATOM      1  O   HOH     1      -6.435  39.418  -1.940  0.00  0.00    +0.000 OA
ENDROOT
TORSDOF 0
REMARK  Name = ../refined-set-2016/4w97/4w97_pocket.pdb
REMARK  282 active torsions:
REMARK  status: ('A' for Active; 'I' for Inactive)
REMARK    1  A    between atoms: _1  and  _3
REMARK    2  A    between atoms: _3  and  _4
REMARK    3  A    between atoms: _3  and  _6
REMARK    4  A    between atoms: _6  and  _7
REMARK    5  A    between atoms: _10  and  _12
REMARK    6  A    between atoms: _12  and  _13
REMARK    7  A    between atoms: _12  and  _15
REMARK    8  A    between atoms: _15  and  _16
REMARK    9  A    between atoms: _22  and  _24
REMARK   10  A    between atoms: _24  and  _25
REMARK   11  A    between atoms: _24  and  _27
REMARK   12  A    between atoms: _27  and  _28
REMARK   13  A    between atoms: _31  and  _33
REMARK   14  A    between atoms: _33  and  _34
REMARK   15  A    between atoms: _33  and  _36
REMARK   16  A    between atoms: _36  and  _37
REMARK   17  A    between atoms: _40  and  _42
REMARK   18  A    between atoms: _42  and  _43
REMARK   19  A    between atoms: _42  and  _45
REMARK   20  A    between atoms: _45  and  _46
REMARK   21  A    between atoms: _52  and  _54
REMARK   22  A    between atoms: _54  and  _55
REMARK   23  A    between atoms: _54  and  _57
REMARK   24  A    between atoms: _57  and  _58
REMARK   25  A    between atoms: _63  and  _64
REMARK   26  A    between atoms: _66  and  _68
REMARK   27  A    between atoms: _68  and  _69
REMARK   28  A    between atoms: _68  and  _71
REMARK   29  A    between atoms: _71  and  _72
REMARK   30  A    between atoms: _74  and  _76
REMARK   31  A    between atoms: _76  and  _77
REMARK   32  A    between atoms: _80  and  _82
REMARK   33  A    between atoms: _82  and  _83
REMARK   34  A    between atoms: _82  and  _85
REMARK   35  A    between atoms: _85  and  _86
REMARK   36  A    between atoms: _89  and  _91
REMARK   37  A    between atoms: _91  and  _92
REMARK   38  A    between atoms: _91  and  _94
REMARK   39  A    between atoms: _94  and  _95
REMARK   40  A    between atoms: _95  and  _96
REMARK   41  A    between atoms: _101  and  _103
REMARK   42  A    between atoms: _103  and  _104
REMARK   43  A    between atoms: _103  and  _106
REMARK   44  A    between atoms: _109  and  _111
REMARK   45  A    between atoms: _111  and  _112
REMARK   46  A    between atoms: _111  and  _114
REMARK   47  A    between atoms: _117  and  _119
REMARK   48  A    between atoms: _119  and  _120
REMARK   49  A    between atoms: _119  and  _122
REMARK   50  A    between atoms: _122  and  _123
REMARK   51  A    between atoms: _126  and  _128
REMARK   52  A    between atoms: _128  and  _129
REMARK   53  A    between atoms: _128  and  _131
REMARK   54  A    between atoms: _131  and  _132
REMARK   55  A    between atoms: _137  and  _138
REMARK   56  A    between atoms: _140  and  _142
REMARK   57  A    between atoms: _142  and  _143
REMARK   58  A    between atoms: _142  and  _145
REMARK   59  A    between atoms: _145  and  _146
REMARK   60  A    between atoms: _146  and  _147
REMARK   61  A    between atoms: _152  and  _154
REMARK   62  A    between atoms: _154  and  _155
REMARK   63  A    between atoms: _154  and  _157
REMARK   64  A    between atoms: _157  and  _158
REMARK   65  A    between atoms: _161  and  _163
REMARK   66  A    between atoms: _163  and  _164
REMARK   67  A    between atoms: _163  and  _166
REMARK   68  A    between atoms: _166  and  _167
REMARK   69  A    between atoms: _167  and  _168
REMARK   70  A    between atoms: _171  and  _173
REMARK   71  A    between atoms: _173  and  _174
REMARK   72  A    between atoms: _177  and  _179
REMARK   73  A    between atoms: _179  and  _180
REMARK   74  A    between atoms: _179  and  _182
REMARK   75  A    between atoms: _182  and  _183
REMARK   76  A    between atoms: _183  and  _184
REMARK   77  A    between atoms: _189  and  _191
REMARK   78  A    between atoms: _191  and  _192
REMARK   79  A    between atoms: _191  and  _194
REMARK   80  A    between atoms: _194  and  _195
REMARK   81  A    between atoms: _195  and  _196
REMARK   82  A    between atoms: _196  and  _197
REMARK   83  A    between atoms: _206  and  _208
REMARK   84  A    between atoms: _208  and  _209
REMARK   85  A    between atoms: _212  and  _214
REMARK   86  A    between atoms: _214  and  _215
REMARK   87  A    between atoms: _214  and  _217
REMARK   88  A    between atoms: _217  and  _218
REMARK   89  A    between atoms: _223  and  _224
REMARK   90  A    between atoms: _226  and  _228
REMARK   91  A    between atoms: _228  and  _229
REMARK   92  A    between atoms: _228  and  _231
REMARK   93  A    between atoms: _231  and  _232
REMARK   94  A    between atoms: _235  and  _237
REMARK   95  A    between atoms: _237  and  _238
REMARK   96  A    between atoms: _237  and  _240
REMARK   97  A    between atoms: _240  and  _241
REMARK   98  A    between atoms: _241  and  _242
REMARK   99  A    between atoms: _245  and  _247
REMARK  100  A    between atoms: _247  and  _248
REMARK  101  A    between atoms: _247  and  _250
REMARK  102  A    between atoms: _250  and  _251
REMARK  103  A    between atoms: _254  and  _256
REMARK  104  A    between atoms: _256  and  _257
REMARK  105  A    between atoms: _256  and  _259
REMARK  106  A    between atoms: _259  and  _260
REMARK  107  A    between atoms: _260  and  _261
REMARK  108  A    between atoms: _261  and  _262
REMARK  109  A    between atoms: _271  and  _273
REMARK  110  A    between atoms: _273  and  _274
REMARK  111  A    between atoms: _273  and  _276
REMARK  112  A    between atoms: _276  and  _277
REMARK  113  A    between atoms: _282  and  _284
REMARK  114  A    between atoms: _284  and  _285
REMARK  115  A    between atoms: _284  and  _287
REMARK  116  A    between atoms: _287  and  _288
REMARK  117  A    between atoms: _288  and  _289
REMARK  118  A    between atoms: _289  and  _290
REMARK  119  A    between atoms: _290  and  _291
REMARK  120  A    between atoms: _295  and  _297
REMARK  121  A    between atoms: _297  and  _298
REMARK  122  A    between atoms: _297  and  _300
REMARK  123  A    between atoms: _300  and  _301
REMARK  124  A    between atoms: _301  and  _302
REMARK  125  A    between atoms: _307  and  _309
REMARK  126  A    between atoms: _309  and  _310
REMARK  127  A    between atoms: _309  and  _312
REMARK  128  A    between atoms: _312  and  _313
REMARK  129  A    between atoms: _313  and  _314
REMARK  130  A    between atoms: _319  and  _321
REMARK  131  A    between atoms: _321  and  _322
REMARK  132  A    between atoms: _321  and  _324
REMARK  133  A    between atoms: _324  and  _325
REMARK  134  A    between atoms: _325  and  _326
REMARK  135  A    between atoms: _326  and  _327
REMARK  136  A    between atoms: _336  and  _338
REMARK  137  A    between atoms: _338  and  _339
REMARK  138  A    between atoms: _338  and  _341
REMARK  139  A    between atoms: _341  and  _342
REMARK  140  A    between atoms: _342  and  _343
REMARK  141  A    between atoms: _345  and  _347
REMARK  142  A    between atoms: _347  and  _348
REMARK  143  A    between atoms: _347  and  _350
REMARK  144  A    between atoms: _350  and  _351
REMARK  145  A    between atoms: _361  and  _363
REMARK  146  A    between atoms: _363  and  _364
REMARK  147  A    between atoms: _363  and  _366
REMARK  148  A    between atoms: _366  and  _367
REMARK  149  A    between atoms: _370  and  _372
REMARK  150  A    between atoms: _372  and  _373
REMARK  151  A    between atoms: _372  and  _375
REMARK  152  A    between atoms: _375  and  _376
REMARK  153  A    between atoms: _379  and  _381
REMARK  154  A    between atoms: _381  and  _382
REMARK  155  A    between atoms: _381  and  _384
REMARK  156  A    between atoms: _384  and  _385
REMARK  157  A    between atoms: _388  and  _390
REMARK  158  A    between atoms: _390  and  _391
REMARK  159  A    between atoms: _390  and  _393
REMARK  160  A    between atoms: _393  and  _394
REMARK  161  A    between atoms: _399  and  _400
REMARK  162  A    between atoms: _402  and  _404
REMARK  163  A    between atoms: _404  and  _405
REMARK  164  A    between atoms: _404  and  _407
REMARK  165  A    between atoms: _407  and  _408
REMARK  166  A    between atoms: _408  and  _409
REMARK  167  A    between atoms: _409  and  _410
REMARK  168  A    between atoms: _419  and  _421
REMARK  169  A    between atoms: _421  and  _422
REMARK  170  A    between atoms: _421  and  _424
REMARK  171  A    between atoms: _424  and  _425
REMARK  172  A    between atoms: _431  and  _433
REMARK  173  A    between atoms: _433  and  _434
REMARK  174  A    between atoms: _433  and  _436
REMARK  175  A    between atoms: _436  and  _437
REMARK  176  A    between atoms: _440  and  _442
REMARK  177  A    between atoms: _442  and  _443
REMARK  178  A    between atoms: _442  and  _445
REMARK  179  A    between atoms: _445  and  _446
REMARK  180  A    between atoms: _446  and  _447
REMARK  181  A    between atoms: _447  and  _448
REMARK  182  A    between atoms: _457  and  _459
REMARK  183  A    between atoms: _459  and  _460
REMARK  184  A    between atoms: _459  and  _462
REMARK  185  A    between atoms: _462  and  _463
REMARK  186  A    between atoms: _466  and  _468
REMARK  187  A    between atoms: _468  and  _469
REMARK  188  A    between atoms: _468  and  _471
REMARK  189  A    between atoms: _471  and  _472
REMARK  190  A    between atoms: _475  and  _477
REMARK  191  A    between atoms: _477  and  _478
REMARK  192  A    between atoms: _477  and  _480
REMARK  193  A    between atoms: _480  and  _481
REMARK  194  A    between atoms: _484  and  _486
REMARK  195  A    between atoms: _486  and  _487
REMARK  196  A    between atoms: _486  and  _489
REMARK  197  A    between atoms: _489  and  _490
REMARK  198  A    between atoms: _500  and  _502
REMARK  199  A    between atoms: _502  and  _503
REMARK  200  A    between atoms: _502  and  _505
REMARK  201  A    between atoms: _508  and  _510
REMARK  202  A    between atoms: _510  and  _511
REMARK  203  A    between atoms: _510  and  _513
REMARK  204  A    between atoms: _513  and  _514
REMARK  205  A    between atoms: _516  and  _518
REMARK  206  A    between atoms: _518  and  _519
REMARK  207  A    between atoms: _518  and  _521
REMARK  208  A    between atoms: _524  and  _526
REMARK  209  A    between atoms: _526  and  _527
REMARK  210  A    between atoms: _526  and  _529
REMARK  211  A    between atoms: _529  and  _530
REMARK  212  A    between atoms: _530  and  _531
REMARK  213  A    between atoms: _531  and  _532
REMARK  214  A    between atoms: _541  and  _543
REMARK  215  A    between atoms: _543  and  _544
REMARK  216  A    between atoms: _543  and  _546
REMARK  217  A    between atoms: _546  and  _547
REMARK  218  A    between atoms: _547  and  _548
REMARK  219  A    between atoms: _551  and  _553
REMARK  220  A    between atoms: _553  and  _554
REMARK  221  A    between atoms: _553  and  _556
REMARK  222  A    between atoms: _556  and  _557
REMARK  223  A    between atoms: _557  and  _558
REMARK  224  A    between atoms: _563  and  _565
REMARK  225  A    between atoms: _565  and  _566
REMARK  226  A    between atoms: _565  and  _568
REMARK  227  A    between atoms: _568  and  _569
REMARK  228  A    between atoms: _572  and  _574
REMARK  229  A    between atoms: _574  and  _575
REMARK  230  A    between atoms: _574  and  _577
REMARK  231  A    between atoms: _580  and  _582
REMARK  232  A    between atoms: _582  and  _583
REMARK  233  A    between atoms: _582  and  _585
REMARK  234  A    between atoms: _585  and  _586
REMARK  235  A    between atoms: _588  and  _590
REMARK  236  A    between atoms: _590  and  _591
REMARK  237  A    between atoms: _590  and  _593
REMARK  238  A    between atoms: _596  and  _598
REMARK  239  A    between atoms: _598  and  _599
REMARK  240  A    between atoms: _598  and  _601
REMARK  241  A    between atoms: _601  and  _602
REMARK  242  A    between atoms: _602  and  _603
REMARK  243  A    between atoms: _603  and  _604
REMARK  244  A    between atoms: _613  and  _615
REMARK  245  A    between atoms: _615  and  _616
REMARK  246  A    between atoms: _615  and  _618
REMARK  247  A    between atoms: _618  and  _619
REMARK  248  A    between atoms: _629  and  _631
REMARK  249  A    between atoms: _631  and  _632
REMARK  250  A    between atoms: _631  and  _634
REMARK  251  A    between atoms: _634  and  _635
REMARK  252  A    between atoms: _640  and  _641
REMARK  253  A    between atoms: _643  and  _645
REMARK  254  A    between atoms: _645  and  _646
REMARK  255  A    between atoms: _645  and  _648
REMARK  256  A    between atoms: _648  and  _649
REMARK  257  A    between atoms: _649  and  _650
REMARK  258  A    between atoms: _650  and  _651
REMARK  259  A    between atoms: _661  and  _662
REMARK  260  A    between atoms: _667  and  _669
REMARK  261  A    between atoms: _669  and  _670
REMARK  262  A    between atoms: _672  and  _674
REMARK  263  A    between atoms: _674  and  _675
REMARK  264  A    between atoms: _678  and  _679
REMARK  265  A    between atoms: _684  and  _686
REMARK  266  A    between atoms: _686  and  _687
REMARK  267  A    between atoms: _686  and  _689
REMARK  268  A    between atoms: _689  and  _690
REMARK  269  A    between atoms: _693  and  _695
REMARK  270  A    between atoms: _695  and  _696
REMARK  271  A    between atoms: _695  and  _698
REMARK  272  A    between atoms: _698  and  _699
REMARK  273  A    between atoms: _702  and  _704
REMARK  274  A    between atoms: _704  and  _705
REMARK  275  A    between atoms: _708  and  _710
REMARK  276  A    between atoms: _710  and  _711
REMARK  277  A    between atoms: _710  and  _713
REMARK  278  A    between atoms: _713  and  _714
REMARK  279  A    between atoms: _714  and  _715
REMARK  280  A    between atoms: _720  and  _722
REMARK  281  A    between atoms: _722  and  _723
REMARK  282  A    between atoms: _722  and  _725
REMARK                            x       y       z     vdW  Elec       q    Type
REMARK                         _______ _______ _______ _____ _____    ______ ____
ROOT
ATOM      1  O   HOH     1      -6.544  37.086  -3.798  0.00  0.00    +0.000 OA
ENDROOT
TORSDOF 0
