REMARK  Name = ../refined-set-2016/5aba/5aba_pocket.pdb
REMARK  89 active torsions:
REMARK  status: ('A' for Active; 'I' for Inactive)
REMARK    1  A    between atoms: _1  and  _3
REMARK    2  A    between atoms: _3  and  _4
REMARK    3  A    between atoms: _3  and  _6
REMARK    4  A    between atoms: _6  and  _7
REMARK    5  A    between atoms: _12  and  _13
REMARK    6  A    between atoms: _15  and  _17
REMARK    7  A    between atoms: _17  and  _18
REMARK    8  A    between atoms: _17  and  _20
REMARK    9  A    between atoms: _20  and  _21
REMARK   10  A    between atoms: _27  and  _29
REMARK   11  A    between atoms: _29  and  _30
REMARK   12  A    between atoms: _29  and  _32
REMARK   13  A    between atoms: _32  and  _33
REMARK   14  A    between atoms: _33  and  _34
REMARK   15  A    between atoms: _34  and  _35
REMARK   16  A    between atoms: _44  and  _46
REMARK   17  A    between atoms: _46  and  _47
REMARK   18  A    between atoms: _46  and  _49
REMARK   19  A    between atoms: _49  and  _50
REMARK   20  A    between atoms: _50  and  _51
REMARK   21  A    between atoms: _56  and  _58
REMARK   22  A    between atoms: _58  and  _59
REMARK   23  A    between atoms: _58  and  _61
REMARK   24  A    between atoms: _61  and  _62
REMARK   25  A    between atoms: _65  and  _67
REMARK   26  A    between atoms: _67  and  _68
REMARK   27  A    between atoms: _67  and  _70
REMARK   28  A    between atoms: _70  and  _71
REMARK   29  A    between atoms: _81  and  _83
REMARK   30  A    between atoms: _83  and  _84
REMARK   31  A    between atoms: _83  and  _86
REMARK   32  A    between atoms: _89  and  _91
REMARK   33  A    between atoms: _91  and  _92
REMARK   34  A    between atoms: _91  and  _94
REMARK   35  A    between atoms: _94  and  _95
REMARK   36  A    between atoms: _98  and  _100
REMARK   37  A    between atoms: _100  and  _101
REMARK   38  A    between atoms: _100  and  _103
REMARK   39  A    between atoms: _103  and  _104
REMARK   40  A    between atoms: _106  and  _108
REMARK   41  A    between atoms: _108  and  _109
REMARK   42  A    between atoms: _108  and  _111
REMARK   43  A    between atoms: _111  and  _112
REMARK   44  A    between atoms: _116  and  _117
REMARK   45  A    between atoms: _123  and  _124
REMARK   46  A    between atoms: _130  and  _131
REMARK   47  A    between atoms: _136  and  _138
REMARK   48  A    between atoms: _138  and  _139
REMARK   49  A    between atoms: _141  and  _143
REMARK   50  A    between atoms: _143  and  _144
REMARK   51  A    between atoms: _143  and  _146
REMARK   52  A    between atoms: _146  and  _147
REMARK   53  A    between atoms: _150  and  _152
REMARK   54  A    between atoms: _152  and  _153
REMARK   55  A    between atoms: _152  and  _155
REMARK   56  A    between atoms: _159  and  _160
REMARK   57  A    between atoms: _165  and  _167
REMARK   58  A    between atoms: _167  and  _168
REMARK   59  A    between atoms: _167  and  _170
REMARK   60  A    between atoms: _172  and  _174
REMARK   61  A    between atoms: _174  and  _175
REMARK   62  A    between atoms: _174  and  _177
REMARK   63  A    between atoms: _177  and  _178
REMARK   64  A    between atoms: _178  and  _179
REMARK   65  A    between atoms: _183  and  _184
REMARK   66  A    between atoms: _190  and  _191
REMARK   67  A    between atoms: _196  and  _198
REMARK   68  A    between atoms: _198  and  _199
REMARK   69  A    between atoms: _198  and  _201
REMARK   70  A    between atoms: _201  and  _202
REMARK   71  A    between atoms: _204  and  _206
REMARK   72  A    between atoms: _206  and  _207
REMARK   73  A    between atoms: _206  and  _209
REMARK   74  A    between atoms: _209  and  _210
REMARK   75  A    between atoms: _213  and  _215
REMARK   76  A    between atoms: _215  and  _216
REMARK   77  A    between atoms: _215  and  _218
REMARK   78  A    between atoms: _220  and  _222
REMARK   79  A    between atoms: _222  and  _223
REMARK   80  A    between atoms: _222  and  _225
REMARK   81  A    between atoms: _225  and  _226
REMARK   82  A    between atoms: _229  and  _231
REMARK   83  A    between atoms: _231  and  _232
REMARK   84  A    between atoms: _231  and  _234
REMARK   85  A    between atoms: _234  and  _235
REMARK   86  A    between atoms: _238  and  _240
REMARK   87  A    between atoms: _240  and  _241
REMARK   88  A    between atoms: _240  and  _243
REMARK   89  A    between atoms: _243  and  _244
REMARK                            x       y       z     vdW  Elec       q    Type
REMARK                         _______ _______ _______ _____ _____    ______ ____
ROOT
ATOM      1  CG  TYR A   1      99.331  94.740 -47.115  0.00  0.00    -0.020 A 
ATOM      2  CD2 TYR A   1     100.126  93.633 -47.394  0.00  0.00    -0.001 A 
ATOM      3  CE2 TYR A   1     100.284  93.179 -48.707  0.00  0.00    +0.036 A 
ATOM      4  CZ  TYR A   1      99.654  93.854 -49.728  0.00  0.00    +0.134 A 
ATOM      5  CE1 TYR A   1      98.876  94.960 -49.464  0.00  0.00    +0.036 A 
ATOM      6  CD1 TYR A   1      98.722  95.398 -48.168  0.00  0.00    -0.001 A 
ENDROOT
BRANCH   4   7
ATOM      7  OH  TYR A   1      99.800  93.431 -51.040  0.00  0.00    -0.506 OA
ATOM      8  HH  TYR A   1      99.282  94.027 -51.637  0.00  0.00    +0.292 HD
ENDBRANCH   4   7
BRANCH   1   9
ATOM      9  CB  TYR A   1      99.179  95.257 -45.706  0.00  0.00    +0.051 C 
BRANCH   9  10
ATOM     10  CA  TYR A   1     100.016  96.527 -45.526  0.00  0.00    +0.137 C 
BRANCH  10  11
ATOM     11  N   TYR A   1     101.410  96.240 -45.818  0.00  0.00    -0.239 NA
ATOM     12  H   TYR A   1     101.853  95.381 -45.433  0.00  0.00    +0.142 HD
ENDBRANCH  10  11
BRANCH  10  13
ATOM     13  C   TYR A   1      99.817  97.132 -44.140  0.00  0.00    +0.224 C 
ATOM     14  O   TYR A   1      98.691  97.422 -43.754  0.00  0.00    -0.287 OA
ENDBRANCH  10  13
ENDBRANCH   9  10
ENDBRANCH   1   9
TORSDOF 5
REMARK  Name = ../refined-set-2016/5aba/5aba_pocket.pdb
REMARK  89 active torsions:
REMARK  status: ('A' for Active; 'I' for Inactive)
REMARK    1  A    between atoms: _1  and  _3
REMARK    2  A    between atoms: _3  and  _4
REMARK    3  A    between atoms: _3  and  _6
REMARK    4  A    between atoms: _6  and  _7
REMARK    5  A    between atoms: _12  and  _13
REMARK    6  A    between atoms: _15  and  _17
REMARK    7  A    between atoms: _17  and  _18
REMARK    8  A    between atoms: _17  and  _20
REMARK    9  A    between atoms: _20  and  _21
REMARK   10  A    between atoms: _27  and  _29
REMARK   11  A    between atoms: _29  and  _30
REMARK   12  A    between atoms: _29  and  _32
REMARK   13  A    between atoms: _32  and  _33
REMARK   14  A    between atoms: _33  and  _34
REMARK   15  A    between atoms: _34  and  _35
REMARK   16  A    between atoms: _44  and  _46
REMARK   17  A    between atoms: _46  and  _47
REMARK   18  A    between atoms: _46  and  _49
REMARK   19  A    between atoms: _49  and  _50
REMARK   20  A    between atoms: _50  and  _51
REMARK   21  A    between atoms: _56  and  _58
REMARK   22  A    between atoms: _58  and  _59
REMARK   23  A    between atoms: _58  and  _61
REMARK   24  A    between atoms: _61  and  _62
REMARK   25  A    between atoms: _65  and  _67
REMARK   26  A    between atoms: _67  and  _68
REMARK   27  A    between atoms: _67  and  _70
REMARK   28  A    between atoms: _70  and  _71
REMARK   29  A    between atoms: _81  and  _83
REMARK   30  A    between atoms: _83  and  _84
REMARK   31  A    between atoms: _83  and  _86
REMARK   32  A    between atoms: _89  and  _91
REMARK   33  A    between atoms: _91  and  _92
REMARK   34  A    between atoms: _91  and  _94
REMARK   35  A    between atoms: _94  and  _95
REMARK   36  A    between atoms: _98  and  _100
REMARK   37  A    between atoms: _100  and  _101
REMARK   38  A    between atoms: _100  and  _103
REMARK   39  A    between atoms: _103  and  _104
REMARK   40  A    between atoms: _106  and  _108
REMARK   41  A    between atoms: _108  and  _109
REMARK   42  A    between atoms: _108  and  _111
REMARK   43  A    between atoms: _111  and  _112
REMARK   44  A    between atoms: _116  and  _117
REMARK   45  A    between atoms: _123  and  _124
REMARK   46  A    between atoms: _130  and  _131
REMARK   47  A    between atoms: _136  and  _138
REMARK   48  A    between atoms: _138  and  _139
REMARK   49  A    between atoms: _141  and  _143
REMARK   50  A    between atoms: _143  and  _144
REMARK   51  A    between atoms: _143  and  _146
REMARK   52  A    between atoms: _146  and  _147
REMARK   53  A    between atoms: _150  and  _152
REMARK   54  A    between atoms: _152  and  _153
REMARK   55  A    between atoms: _152  and  _155
REMARK   56  A    between atoms: _159  and  _160
REMARK   57  A    between atoms: _165  and  _167
REMARK   58  A    between atoms: _167  and  _168
REMARK   59  A    between atoms: _167  and  _170
REMARK   60  A    between atoms: _172  and  _174
REMARK   61  A    between atoms: _174  and  _175
REMARK   62  A    between atoms: _174  and  _177
REMARK   63  A    between atoms: _177  and  _178
REMARK   64  A    between atoms: _178  and  _179
REMARK   65  A    between atoms: _183  and  _184
REMARK   66  A    between atoms: _190  and  _191
REMARK   67  A    between atoms: _196  and  _198
REMARK   68  A    between atoms: _198  and  _199
REMARK   69  A    between atoms: _198  and  _201
REMARK   70  A    between atoms: _201  and  _202
REMARK   71  A    between atoms: _204  and  _206
REMARK   72  A    between atoms: _206  and  _207
REMARK   73  A    between atoms: _206  and  _209
REMARK   74  A    between atoms: _209  and  _210
REMARK   75  A    between atoms: _213  and  _215
REMARK   76  A    between atoms: _215  and  _216
REMARK   77  A    between atoms: _215  and  _218
REMARK   78  A    between atoms: _220  and  _222
REMARK   79  A    between atoms: _222  and  _223
REMARK   80  A    between atoms: _222  and  _225
REMARK   81  A    between atoms: _225  and  _226
REMARK   82  A    between atoms: _229  and  _231
REMARK   83  A    between atoms: _231  and  _232
REMARK   84  A    between atoms: _231  and  _234
REMARK   85  A    between atoms: _234  and  _235
REMARK   86  A    between atoms: _238  and  _240
REMARK   87  A    between atoms: _240  and  _241
REMARK   88  A    between atoms: _240  and  _243
REMARK   89  A    between atoms: _243  and  _244
REMARK                            x       y       z     vdW  Elec       q    Type
REMARK                         _______ _______ _______ _____ _____    ______ ____
ROOT
ATOM      1  CA  ARG A   2      99.502  94.865 -36.463  0.00  0.00    +0.137 C 
ENDROOT
BRANCH   1   3
ATOM      2  C   PHE A   1     100.208  94.946 -38.795  0.00  0.00    +0.239 C 
ATOM      3  N   ARG A   2      99.227  94.951 -37.899  0.00  0.00    -0.298 N 
ATOM      4  H   ARG A   2      98.242  95.017 -38.225  0.00  0.00    +0.150 HD
ATOM      5  O   PHE A   1     101.398  95.009 -38.493  0.00  0.00    -0.274 OA
BRANCH   2   6
ATOM      6  CA  PHE A   1      99.780  94.867 -40.257  0.00  0.00    +0.149 C 
BRANCH   6   7
ATOM      7  N   PHE A   1     100.444  95.863 -41.102  0.00  0.00    -0.238 NA
ATOM      8  H   PHE A   1     101.222  95.546 -41.715  0.00  0.00    +0.142 HD
ENDBRANCH   6   7
BRANCH   6   9
ATOM      9  CB  PHE A   1     100.078  93.470 -40.788  0.00  0.00    +0.053 C 
BRANCH   9  10
ATOM     10  CG  PHE A   1      99.558  92.354 -39.925  0.00  0.00    -0.020 A 
ATOM     11  CD2 PHE A   1     100.426  91.604 -39.147  0.00  0.00    -0.004 A 
ATOM     12  CE2 PHE A   1      99.956  90.554 -38.360  0.00  0.00    -0.000 A 
ATOM     13  CZ  PHE A   1      98.606  90.268 -38.342  0.00  0.00    -0.000 A 
ATOM     14  CE1 PHE A   1      97.724  91.006 -39.120  0.00  0.00    -0.000 A 
ATOM     15  CD1 PHE A   1      98.208  92.045 -39.911  0.00  0.00    -0.004 A 
ENDBRANCH   9  10
ENDBRANCH   6   9
ENDBRANCH   2   6
ENDBRANCH   1   3
BRANCH   1  16
ATOM     16  C   ARG A   2      98.262  94.386 -35.723  0.00  0.00    +0.227 C 
ATOM     17  O   ARG A   2      97.148  94.521 -36.223  0.00  0.00    -0.286 OA
ENDBRANCH   1  16
BRANCH   1  18
ATOM     18  CB  ARG A   2      99.974  96.220 -35.894  0.00  0.00    +0.031 C 
BRANCH  18  19
ATOM     19  CG  ARG A   2      98.902  97.314 -35.776  0.00  0.00    +0.045 C 
BRANCH  19  20
ATOM     20  CD  ARG A   2      98.718  98.051 -37.089  0.00  0.00    +0.174 C 
BRANCH  20  21
ATOM     21  NE  ARG A   2      97.820  99.186 -36.915  0.00  0.00    -0.265 N 
ATOM     22  HE  ARG A   2      97.471  99.390 -35.957  0.00  0.00    +0.259 HD
ATOM     23  CZ  ARG A   2      97.421  99.975 -37.905  0.00  0.00    +0.342 C 
ATOM     24  NH2 ARG A   2      96.588 100.984 -37.660  0.00  0.00    -0.292 N 
ATOM     25 HH21 ARG A   2      96.249 101.155 -36.692  0.00  0.00    +0.255 HD
ATOM     26 HH22 ARG A   2      96.276 101.601 -38.437  0.00  0.00    +0.255 HD
ATOM     27  NH1 ARG A   2      97.859  99.750 -39.139  0.00  0.00    -0.292 N 
ATOM     28 HH11 ARG A   2      98.510  98.960 -39.324  0.00  0.00    +0.255 HD
ATOM     29 HH12 ARG A   2      97.551 100.364 -39.920  0.00  0.00    +0.255 HD
ENDBRANCH  20  21
ENDBRANCH  19  20
ENDBRANCH  18  19
ENDBRANCH   1  18
TORSDOF 10
REMARK  Name = ../refined-set-2016/5aba/5aba_pocket.pdb
REMARK  89 active torsions:
REMARK  status: ('A' for Active; 'I' for Inactive)
REMARK    1  A    between atoms: _1  and  _3
REMARK    2  A    between atoms: _3  and  _4
REMARK    3  A    between atoms: _3  and  _6
REMARK    4  A    between atoms: _6  and  _7
REMARK    5  A    between atoms: _12  and  _13
REMARK    6  A    between atoms: _15  and  _17
REMARK    7  A    between atoms: _17  and  _18
REMARK    8  A    between atoms: _17  and  _20
REMARK    9  A    between atoms: _20  and  _21
REMARK   10  A    between atoms: _27  and  _29
REMARK   11  A    between atoms: _29  and  _30
REMARK   12  A    between atoms: _29  and  _32
REMARK   13  A    between atoms: _32  and  _33
REMARK   14  A    between atoms: _33  and  _34
REMARK   15  A    between atoms: _34  and  _35
REMARK   16  A    between atoms: _44  and  _46
REMARK   17  A    between atoms: _46  and  _47
REMARK   18  A    between atoms: _46  and  _49
REMARK   19  A    between atoms: _49  and  _50
REMARK   20  A    between atoms: _50  and  _51
REMARK   21  A    between atoms: _56  and  _58
REMARK   22  A    between atoms: _58  and  _59
REMARK   23  A    between atoms: _58  and  _61
REMARK   24  A    between atoms: _61  and  _62
REMARK   25  A    between atoms: _65  and  _67
REMARK   26  A    between atoms: _67  and  _68
REMARK   27  A    between atoms: _67  and  _70
REMARK   28  A    between atoms: _70  and  _71
REMARK   29  A    between atoms: _81  and  _83
REMARK   30  A    between atoms: _83  and  _84
REMARK   31  A    between atoms: _83  and  _86
REMARK   32  A    between atoms: _89  and  _91
REMARK   33  A    between atoms: _91  and  _92
REMARK   34  A    between atoms: _91  and  _94
REMARK   35  A    between atoms: _94  and  _95
REMARK   36  A    between atoms: _98  and  _100
REMARK   37  A    between atoms: _100  and  _101
REMARK   38  A    between atoms: _100  and  _103
REMARK   39  A    between atoms: _103  and  _104
REMARK   40  A    between atoms: _106  and  _108
REMARK   41  A    between atoms: _108  and  _109
REMARK   42  A    between atoms: _108  and  _111
REMARK   43  A    between atoms: _111  and  _112
REMARK   44  A    between atoms: _116  and  _117
REMARK   45  A    between atoms: _123  and  _124
REMARK   46  A    between atoms: _130  and  _131
REMARK   47  A    between atoms: _136  and  _138
REMARK   48  A    between atoms: _138  and  _139
REMARK   49  A    between atoms: _141  and  _143
REMARK   50  A    between atoms: _143  and  _144
REMARK   51  A    between atoms: _143  and  _146
REMARK   52  A    between atoms: _146  and  _147
REMARK   53  A    between atoms: _150  and  _152
REMARK   54  A    between atoms: _152  and  _153
REMARK   55  A    between atoms: _152  and  _155
REMARK   56  A    between atoms: _159  and  _160
REMARK   57  A    between atoms: _165  and  _167
REMARK   58  A    between atoms: _167  and  _168
REMARK   59  A    between atoms: _167  and  _170
REMARK   60  A    between atoms: _172  and  _174
REMARK   61  A    between atoms: _174  and  _175
REMARK   62  A    between atoms: _174  and  _177
REMARK   63  A    between atoms: _177  and  _178
REMARK   64  A    between atoms: _178  and  _179
REMARK   65  A    between atoms: _183  and  _184
REMARK   66  A    between atoms: _190  and  _191
REMARK   67  A    between atoms: _196  and  _198
REMARK   68  A    between atoms: _198  and  _199
REMARK   69  A    between atoms: _198  and  _201
REMARK   70  A    between atoms: _201  and  _202
REMARK   71  A    between atoms: _204  and  _206
REMARK   72  A    between atoms: _206  and  _207
REMARK   73  A    between atoms: _206  and  _209
REMARK   74  A    between atoms: _209  and  _210
REMARK   75  A    between atoms: _213  and  _215
REMARK   76  A    between atoms: _215  and  _216
REMARK   77  A    between atoms: _215  and  _218
REMARK   78  A    between atoms: _220  and  _222
REMARK   79  A    between atoms: _222  and  _223
REMARK   80  A    between atoms: _222  and  _225
REMARK   81  A    between atoms: _225  and  _226
REMARK   82  A    between atoms: _229  and  _231
REMARK   83  A    between atoms: _231  and  _232
REMARK   84  A    between atoms: _231  and  _234
REMARK   85  A    between atoms: _234  and  _235
REMARK   86  A    between atoms: _238  and  _240
REMARK   87  A    between atoms: _240  and  _241
REMARK   88  A    between atoms: _240  and  _243
REMARK   89  A    between atoms: _243  and  _244
REMARK                            x       y       z     vdW  Elec       q    Type
REMARK                         _______ _______ _______ _____ _____    ______ ____
ROOT
ATOM      1  C   ASP A   5      96.154 100.326 -44.695  0.00  0.00    +0.241 C 
ATOM      2  O   ASP A   5      95.575 101.294 -45.185  0.00  0.00    -0.273 OA
ATOM      3  N   SER A   6      96.297  99.178 -45.347  0.00  0.00    -0.295 N 
ATOM      4  H   SER A   6      96.850  98.407 -44.921  0.00  0.00    +0.150 HD
ENDROOT
BRANCH   3   5
ATOM      5  CA  SER A   6      95.686  98.992 -46.652  0.00  0.00    +0.178 C 
BRANCH   5   6
ATOM      6  C   SER A   6      95.270  97.533 -46.837  0.00  0.00    +0.243 C 
ATOM      7  O   SER A   6      95.823  96.640 -46.196  0.00  0.00    -0.273 OA
ATOM      8  N   THR A   7      94.272  97.318 -47.685  0.00  0.00    -0.295 N 
ATOM      9  H   THR A   7      93.887  98.121 -48.222  0.00  0.00    +0.150 HD
BRANCH   8  10
ATOM     10  CA  THR A   7      93.697  95.993 -47.889  0.00  0.00    +0.176 C 
BRANCH  10  11
ATOM     11  C   THR A   7      94.663  95.029 -48.564  0.00  0.00    +0.246 C 
ATOM     12  N   PRO A   8      94.945  93.890 -47.910  0.00  0.00    -0.272 N 
ATOM     13  CD  PRO A   8      94.555  93.572 -46.526  0.00  0.00    +0.094 C 
ATOM     14  CG  PRO A   8      95.639  92.642 -46.085  0.00  0.00    +0.024 C 
ATOM     15  CB  PRO A   8      96.028  91.877 -47.324  0.00  0.00    +0.031 C 
ATOM     16  CA  PRO A   8      95.781  92.836 -48.499  0.00  0.00    +0.152 C 
ATOM     17  O   THR A   7      95.143  95.301 -49.665  0.00  0.00    -0.273 OA
BRANCH  16  18
ATOM     18  C   PRO A   8      95.058  92.124 -49.643  0.00  0.00    +0.244 C 
ATOM     19  O   PRO A   8      93.822  92.154 -49.687  0.00  0.00    -0.273 OA
ATOM     20  N   PRO A   9      95.810  91.482 -50.555  0.00  0.00    -0.272 N 
ATOM     21  CD  PRO A   9      97.281  91.485 -50.640  0.00  0.00    +0.094 C 
ATOM     22  CG  PRO A   9      97.537  91.116 -52.072  0.00  0.00    +0.024 C 
ATOM     23  CB  PRO A   9      96.424  90.203 -52.420  0.00  0.00    +0.031 C 
ATOM     24  CA  PRO A   9      95.208  90.775 -51.690  0.00  0.00    +0.152 C 
BRANCH  24  25
ATOM     25  C   PRO A   9      94.262  89.651 -51.289  0.00  0.00    +0.244 C 
ATOM     26  O   PRO A   9      94.423  89.061 -50.220  0.00  0.00    -0.273 OA
ATOM     27  N   PRO A  10      93.282  89.347 -52.149  0.00  0.00    -0.272 N 
ATOM     28  CA  PRO A  10      92.465  88.150 -51.933  0.00  0.00    +0.152 C 
ATOM     29  CB  PRO A  10      91.584  88.086 -53.185  0.00  0.00    +0.031 C 
ATOM     30  CG  PRO A  10      91.551  89.498 -53.703  0.00  0.00    +0.024 C 
ATOM     31  CD  PRO A  10      92.901  90.076 -53.373  0.00  0.00    +0.094 C 
BRANCH  28  32
ATOM     32  C   PRO A  10      93.347  86.911 -51.827  0.00  0.00    +0.241 C 
ATOM     33  N   GLY A  11      93.069  86.045 -50.862  0.00  0.00    -0.295 N 
ATOM     34  H   GLY A  11      92.246  86.200 -50.245  0.00  0.00    +0.150 HD
ATOM     35  O   PRO A  10      94.275  86.756 -52.619  0.00  0.00    -0.273 OA
BRANCH  33  36
ATOM     36  CA  GLY A  11      93.916  84.879 -50.667  0.00  0.00    +0.176 C 
BRANCH  36  37
ATOM     37  C   GLY A  11      94.903  85.046 -49.526  0.00  0.00    +0.243 C 
ATOM     38  N   THR A  12      95.014  86.261 -48.997  0.00  0.00    -0.296 N 
ATOM     39  H   THR A  12      94.518  87.060 -49.442  0.00  0.00    +0.150 HD
ATOM     40  O   GLY A  11      95.563  84.093 -49.129  0.00  0.00    -0.273 OA
BRANCH  38  41
ATOM     41  CA  THR A  12      95.820  86.492 -47.802  0.00  0.00    +0.164 C 
BRANCH  41  42
ATOM     42  CB  THR A  12      95.851  87.985 -47.445  0.00  0.00    +0.136 C 
ATOM     43  CG2 THR A  12      96.759  88.242 -46.256  0.00  0.00    +0.034 C 
BRANCH  42  44
ATOM     44  OG1 THR A  12      96.351  88.718 -48.567  0.00  0.00    -0.382 OA
ATOM     45  HG1 THR A  12      95.758  88.571 -49.346  0.00  0.00    +0.210 HD
ENDBRANCH  42  44
ENDBRANCH  41  42
BRANCH  41  46
ATOM     46  C   THR A  12      95.253  85.685 -46.638  0.00  0.00    +0.229 C 
ATOM     47  O   THR A  12      94.032  85.535 -46.515  0.00  0.00    -0.286 OA
ENDBRANCH  41  46
ENDBRANCH  38  41
ENDBRANCH  36  37
ENDBRANCH  33  36
ENDBRANCH  28  32
ENDBRANCH  24  25
ENDBRANCH  16  18
ENDBRANCH  10  11
BRANCH  10  48
ATOM     48  CB  THR A   7      92.422  96.065 -48.741  0.00  0.00    +0.137 C 
ATOM     49  CG2 THR A   7      91.753  94.698 -48.796  0.00  0.00    +0.034 C 
BRANCH  48  50
ATOM     50  OG1 THR A   7      91.514  97.029 -48.183  0.00  0.00    -0.382 OA
ATOM     51  HG1 THR A   7      90.695  97.069 -48.738  0.00  0.00    +0.210 HD
ENDBRANCH  48  50
ENDBRANCH  10  48
ENDBRANCH   8  10
ENDBRANCH   5   6
BRANCH   5  52
ATOM     52  CB  SER A   6      96.639  99.434 -47.761  0.00  0.00    +0.166 C 
BRANCH  52  53
ATOM     53  OG  SER A   6      97.884  98.777 -47.642  0.00  0.00    -0.380 OA
ATOM     54  H   SER A   6      98.289  98.996 -46.766  0.00  0.00    +0.211 HD
ENDBRANCH  52  53
ENDBRANCH   5  52
ENDBRANCH   3   5
BRANCH   1  55
ATOM     55  CA  ASP A   5      96.765 100.416 -43.306  0.00  0.00    +0.160 C 
BRANCH  55  58
ATOM     56  C   VAL A   4      95.799  98.597 -42.008  0.00  0.00    +0.241 C 
ATOM     57  O   VAL A   4      94.745  99.209 -41.827  0.00  0.00    -0.273 OA
ATOM     58  N   ASP A   5      96.834  99.111 -42.661  0.00  0.00    -0.297 N 
ATOM     59  H   ASP A   5      97.719  98.567 -42.714  0.00  0.00    +0.150 HD
BRANCH  56  60
ATOM     60  CA  VAL A   4      95.976  97.171 -41.503  0.00  0.00    +0.149 C 
BRANCH  60  63
ATOM     61  C   TRP A   3      95.555  96.243 -39.291  0.00  0.00    +0.241 C 
ATOM     62  O   TRP A   3      96.673  95.736 -39.227  0.00  0.00    -0.273 OA
ATOM     63  N   VAL A   4      95.116  96.918 -40.349  0.00  0.00    -0.297 N 
ATOM     64  H   VAL A   4      94.139  97.274 -40.355  0.00  0.00    +0.150 HD
BRANCH  61  65
ATOM     65  CA  TRP A   3      94.603  96.123 -38.122  0.00  0.00    +0.153 C 
BRANCH  65  67
ATOM     66  C   LEU A   2      93.547  93.980 -37.553  0.00  0.00    +0.241 C 
ATOM     67  N   TRP A   3      94.623  94.764 -37.581  0.00  0.00    -0.297 N 
ATOM     68  H   TRP A   3      95.518  94.394 -37.201  0.00  0.00    +0.150 HD
ATOM     69  O   LEU A   2      92.443  94.333 -37.937  0.00  0.00    -0.273 OA
BRANCH  66  70
ATOM     70  CA  LEU A   2      93.730  92.586 -36.970  0.00  0.00    +0.149 C 
BRANCH  70  73
ATOM     71  C   GLN A   1      93.156  92.331 -34.596  0.00  0.00    +0.238 C 
ATOM     72  O   GLN A   1      94.325  92.261 -34.223  0.00  0.00    -0.274 OA
ATOM     73  N   LEU A   2      92.784  92.424 -35.873  0.00  0.00    -0.297 N 
ATOM     74  H   LEU A   2      91.769  92.379 -36.097  0.00  0.00    +0.150 HD
BRANCH  71  75
ATOM     75  CA  GLN A   1      92.024  92.332 -33.594  0.00  0.00    +0.145 C 
BRANCH  75  76
ATOM     76  N   GLN A   1      92.316  91.496 -32.422  0.00  0.00    -0.238 NA
ATOM     77  H   GLN A   1      92.772  91.922 -31.590  0.00  0.00    +0.142 HD
ENDBRANCH  75  76
BRANCH  75  78
ATOM     78  CB  GLN A   1      91.744  93.779 -33.165  0.00  0.00    +0.036 C 
BRANCH  78  79
ATOM     79  CG  GLN A   1      90.626  93.906 -32.150  0.00  0.00    +0.087 C 
BRANCH  79  80
ATOM     80  CD  GLN A   1      90.459  95.328 -31.655  0.00  0.00    +0.219 C 
ATOM     81  NE2 GLN A   1      89.255  95.655 -31.195  0.00  0.00    -0.329 N 
ATOM     82 HE21 GLN A   1      89.082  96.611 -30.824  0.00  0.00    +0.145 HD
ATOM     83 HE22 GLN A   1      88.486  94.955 -31.206  0.00  0.00    +0.145 HD
ATOM     84  OE1 GLN A   1      91.402  96.115 -31.666  0.00  0.00    -0.275 OA
ENDBRANCH  79  80
ENDBRANCH  78  79
ENDBRANCH  75  78
ENDBRANCH  71  75
ENDBRANCH  70  73
BRANCH  70  85
ATOM     85  CB  LEU A   2      93.505  91.527 -38.043  0.00  0.00    +0.029 C 
BRANCH  85  86
ATOM     86  CG  LEU A   2      93.474  90.076 -37.574  0.00  0.00    +0.002 C 
ATOM     87  CD2 LEU A   2      94.779  89.690 -36.880  0.00  0.00    +0.000 C 
ATOM     88  CD1 LEU A   2      93.206  89.167 -38.773  0.00  0.00    +0.000 C 
ENDBRANCH  85  86
ENDBRANCH  70  85
ENDBRANCH  66  70
ENDBRANCH  65  67
BRANCH  65  89
ATOM     89  CB  TRP A   3      95.005  97.142 -37.052  0.00  0.00    +0.057 C 
BRANCH  89  90
ATOM     90  CG  TRP A   3      94.006  97.306 -35.961  0.00  0.00    -0.002 A 
ATOM     91  CD1 TRP A   3      93.915  96.583 -34.800  0.00  0.00    +0.068 A 
ATOM     92  NE1 TRP A   3      92.864  97.037 -34.043  0.00  0.00    -0.352 N 
ATOM     93  HE1 TRP A   3      92.573  96.656 -33.120  0.00  0.00    +0.166 HD
ATOM     94  CE2 TRP A   3      92.262  98.076 -34.704  0.00  0.00    +0.056 A 
ATOM     95  CZ2 TRP A   3      91.169  98.860 -34.339  0.00  0.00    +0.017 A 
ATOM     96  CH2 TRP A   3      90.778  99.837 -35.213  0.00  0.00    +0.001 A 
ATOM     97  CZ3 TRP A   3      91.441 100.047 -36.422  0.00  0.00    +0.000 A 
ATOM     98  CE3 TRP A   3      92.529  99.270 -36.786  0.00  0.00    +0.001 A 
ATOM     99  CD2 TRP A   3      92.953  98.265 -35.919  0.00  0.00    +0.013 A 
ENDBRANCH  89  90
ENDBRANCH  65  89
ENDBRANCH  61  65
ENDBRANCH  60  63
BRANCH  60 100
ATOM    100  CB  VAL A   4      95.696  96.191 -42.678  0.00  0.00    +0.027 C 
ATOM    101  CG2 VAL A   4      96.082  94.757 -42.292  0.00  0.00    +0.002 C 
ATOM    102  CG1 VAL A   4      94.237  96.264 -43.128  0.00  0.00    +0.002 C 
ENDBRANCH  60 100
ENDBRANCH  56  60
ENDBRANCH  55  58
BRANCH  55 103
ATOM    103  CB  ASP A   5      98.154 101.033 -43.395  0.00  0.00    +0.143 C 
BRANCH 103 104
ATOM    104  CG  ASP A   5      98.667 101.506 -42.054  0.00  0.00    +0.367 C 
ATOM    105  OD2 ASP A   5      97.841 101.817 -41.160  0.00  0.00    -0.246 OA
ATOM    106  OD1 ASP A   5      99.903 101.565 -41.898  0.00  0.00    -0.246 OA
ENDBRANCH 103 104
ENDBRANCH  55 103
ENDBRANCH   1  55
TORSDOF 37
REMARK  Name = ../refined-set-2016/5aba/5aba_pocket.pdb
REMARK  89 active torsions:
REMARK  status: ('A' for Active; 'I' for Inactive)
REMARK    1  A    between atoms: _1  and  _3
REMARK    2  A    between atoms: _3  and  _4
REMARK    3  A    between atoms: _3  and  _6
REMARK    4  A    between atoms: _6  and  _7
REMARK    5  A    between atoms: _12  and  _13
REMARK    6  A    between atoms: _15  and  _17
REMARK    7  A    between atoms: _17  and  _18
REMARK    8  A    between atoms: _17  and  _20
REMARK    9  A    between atoms: _20  and  _21
REMARK   10  A    between atoms: _27  and  _29
REMARK   11  A    between atoms: _29  and  _30
REMARK   12  A    between atoms: _29  and  _32
REMARK   13  A    between atoms: _32  and  _33
REMARK   14  A    between atoms: _33  and  _34
REMARK   15  A    between atoms: _34  and  _35
REMARK   16  A    between atoms: _44  and  _46
REMARK   17  A    between atoms: _46  and  _47
REMARK   18  A    between atoms: _46  and  _49
REMARK   19  A    between atoms: _49  and  _50
REMARK   20  A    between atoms: _50  and  _51
REMARK   21  A    between atoms: _56  and  _58
REMARK   22  A    between atoms: _58  and  _59
REMARK   23  A    between atoms: _58  and  _61
REMARK   24  A    between atoms: _61  and  _62
REMARK   25  A    between atoms: _65  and  _67
REMARK   26  A    between atoms: _67  and  _68
REMARK   27  A    between atoms: _67  and  _70
REMARK   28  A    between atoms: _70  and  _71
REMARK   29  A    between atoms: _81  and  _83
REMARK   30  A    between atoms: _83  and  _84
REMARK   31  A    between atoms: _83  and  _86
REMARK   32  A    between atoms: _89  and  _91
REMARK   33  A    between atoms: _91  and  _92
REMARK   34  A    between atoms: _91  and  _94
REMARK   35  A    between atoms: _94  and  _95
REMARK   36  A    between atoms: _98  and  _100
REMARK   37  A    between atoms: _100  and  _101
REMARK   38  A    between atoms: _100  and  _103
REMARK   39  A    between atoms: _103  and  _104
REMARK   40  A    between atoms: _106  and  _108
REMARK   41  A    between atoms: _108  and  _109
REMARK   42  A    between atoms: _108  and  _111
REMARK   43  A    between atoms: _111  and  _112
REMARK   44  A    between atoms: _116  and  _117
REMARK   45  A    between atoms: _123  and  _124
REMARK   46  A    between atoms: _130  and  _131
REMARK   47  A    between atoms: _136  and  _138
REMARK   48  A    between atoms: _138  and  _139
REMARK   49  A    between atoms: _141  and  _143
REMARK   50  A    between atoms: _143  and  _144
REMARK   51  A    between atoms: _143  and  _146
REMARK   52  A    between atoms: _146  and  _147
REMARK   53  A    between atoms: _150  and  _152
REMARK   54  A    between atoms: _152  and  _153
REMARK   55  A    between atoms: _152  and  _155
REMARK   56  A    between atoms: _159  and  _160
REMARK   57  A    between atoms: _165  and  _167
REMARK   58  A    between atoms: _167  and  _168
REMARK   59  A    between atoms: _167  and  _170
REMARK   60  A    between atoms: _172  and  _174
REMARK   61  A    between atoms: _174  and  _175
REMARK   62  A    between atoms: _174  and  _177
REMARK   63  A    between atoms: _177  and  _178
REMARK   64  A    between atoms: _178  and  _179
REMARK   65  A    between atoms: _183  and  _184
REMARK   66  A    between atoms: _190  and  _191
REMARK   67  A    between atoms: _196  and  _198
REMARK   68  A    between atoms: _198  and  _199
REMARK   69  A    between atoms: _198  and  _201
REMARK   70  A    between atoms: _201  and  _202
REMARK   71  A    between atoms: _204  and  _206
REMARK   72  A    between atoms: _206  and  _207
REMARK   73  A    between atoms: _206  and  _209
REMARK   74  A    between atoms: _209  and  _210
REMARK   75  A    between atoms: _213  and  _215
REMARK   76  A    between atoms: _215  and  _216
REMARK   77  A    between atoms: _215  and  _218
REMARK   78  A    between atoms: _220  and  _222
REMARK   79  A    between atoms: _222  and  _223
REMARK   80  A    between atoms: _222  and  _225
REMARK   81  A    between atoms: _225  and  _226
REMARK   82  A    between atoms: _229  and  _231
REMARK   83  A    between atoms: _231  and  _232
REMARK   84  A    between atoms: _231  and  _234
REMARK   85  A    between atoms: _234  and  _235
REMARK   86  A    between atoms: _238  and  _240
REMARK   87  A    between atoms: _240  and  _241
REMARK   88  A    between atoms: _240  and  _243
REMARK   89  A    between atoms: _243  and  _244
REMARK                            x       y       z     vdW  Elec       q    Type
REMARK                         _______ _______ _______ _____ _____    ______ ____
ROOT
ATOM      1  CA  VAL A   1      96.357  84.768 -40.899  0.00  0.00    +0.133 C 
ENDROOT
BRANCH   1   2
ATOM      2  CB  VAL A   1      95.336  85.613 -40.126  0.00  0.00    +0.023 C 
ATOM      3  CG2 VAL A   1      95.947  86.113 -38.821  0.00  0.00    +0.002 C 
ATOM      4  CG1 VAL A   1      94.863  86.781 -40.980  0.00  0.00    +0.002 C 
ENDBRANCH   1   2
BRANCH   1   5
ATOM      5  N   VAL A   1      95.860  84.402 -42.222  0.00  0.00    -0.239 NA
ATOM      6  H   VAL A   1      95.045  83.759 -42.284  0.00  0.00    +0.142 HD
ENDBRANCH   1   5
BRANCH   1   7
ATOM      7  C   VAL A   1      96.638  83.497 -40.113  0.00  0.00    +0.224 C 
ATOM      8  O   VAL A   1      95.716  82.726 -39.868  0.00  0.00    -0.287 OA
ENDBRANCH   1   7
TORSDOF 3
REMARK  Name = ../refined-set-2016/5aba/5aba_pocket.pdb
REMARK  89 active torsions:
REMARK  status: ('A' for Active; 'I' for Inactive)
REMARK    1  A    between atoms: _1  and  _3
REMARK    2  A    between atoms: _3  and  _4
REMARK    3  A    between atoms: _3  and  _6
REMARK    4  A    between atoms: _6  and  _7
REMARK    5  A    between atoms: _12  and  _13
REMARK    6  A    between atoms: _15  and  _17
REMARK    7  A    between atoms: _17  and  _18
REMARK    8  A    between atoms: _17  and  _20
REMARK    9  A    between atoms: _20  and  _21
REMARK   10  A    between atoms: _27  and  _29
REMARK   11  A    between atoms: _29  and  _30
REMARK   12  A    between atoms: _29  and  _32
REMARK   13  A    between atoms: _32  and  _33
REMARK   14  A    between atoms: _33  and  _34
REMARK   15  A    between atoms: _34  and  _35
REMARK   16  A    between atoms: _44  and  _46
REMARK   17  A    between atoms: _46  and  _47
REMARK   18  A    between atoms: _46  and  _49
REMARK   19  A    between atoms: _49  and  _50
REMARK   20  A    between atoms: _50  and  _51
REMARK   21  A    between atoms: _56  and  _58
REMARK   22  A    between atoms: _58  and  _59
REMARK   23  A    between atoms: _58  and  _61
REMARK   24  A    between atoms: _61  and  _62
REMARK   25  A    between atoms: _65  and  _67
REMARK   26  A    between atoms: _67  and  _68
REMARK   27  A    between atoms: _67  and  _70
REMARK   28  A    between atoms: _70  and  _71
REMARK   29  A    between atoms: _81  and  _83
REMARK   30  A    between atoms: _83  and  _84
REMARK   31  A    between atoms: _83  and  _86
REMARK   32  A    between atoms: _89  and  _91
REMARK   33  A    between atoms: _91  and  _92
REMARK   34  A    between atoms: _91  and  _94
REMARK   35  A    between atoms: _94  and  _95
REMARK   36  A    between atoms: _98  and  _100
REMARK   37  A    between atoms: _100  and  _101
REMARK   38  A    between atoms: _100  and  _103
REMARK   39  A    between atoms: _103  and  _104
REMARK   40  A    between atoms: _106  and  _108
REMARK   41  A    between atoms: _108  and  _109
REMARK   42  A    between atoms: _108  and  _111
REMARK   43  A    between atoms: _111  and  _112
REMARK   44  A    between atoms: _116  and  _117
REMARK   45  A    between atoms: _123  and  _124
REMARK   46  A    between atoms: _130  and  _131
REMARK   47  A    between atoms: _136  and  _138
REMARK   48  A    between atoms: _138  and  _139
REMARK   49  A    between atoms: _141  and  _143
REMARK   50  A    between atoms: _143  and  _144
REMARK   51  A    between atoms: _143  and  _146
REMARK   52  A    between atoms: _146  and  _147
REMARK   53  A    between atoms: _150  and  _152
REMARK   54  A    between atoms: _152  and  _153
REMARK   55  A    between atoms: _152  and  _155
REMARK   56  A    between atoms: _159  and  _160
REMARK   57  A    between atoms: _165  and  _167
REMARK   58  A    between atoms: _167  and  _168
REMARK   59  A    between atoms: _167  and  _170
REMARK   60  A    between atoms: _172  and  _174
REMARK   61  A    between atoms: _174  and  _175
REMARK   62  A    between atoms: _174  and  _177
REMARK   63  A    between atoms: _177  and  _178
REMARK   64  A    between atoms: _178  and  _179
REMARK   65  A    between atoms: _183  and  _184
REMARK   66  A    between atoms: _190  and  _191
REMARK   67  A    between atoms: _196  and  _198
REMARK   68  A    between atoms: _198  and  _199
REMARK   69  A    between atoms: _198  and  _201
REMARK   70  A    between atoms: _201  and  _202
REMARK   71  A    between atoms: _204  and  _206
REMARK   72  A    between atoms: _206  and  _207
REMARK   73  A    between atoms: _206  and  _209
REMARK   74  A    between atoms: _209  and  _210
REMARK   75  A    between atoms: _213  and  _215
REMARK   76  A    between atoms: _215  and  _216
REMARK   77  A    between atoms: _215  and  _218
REMARK   78  A    between atoms: _220  and  _222
REMARK   79  A    between atoms: _222  and  _223
REMARK   80  A    between atoms: _222  and  _225
REMARK   81  A    between atoms: _225  and  _226
REMARK   82  A    between atoms: _229  and  _231
REMARK   83  A    between atoms: _231  and  _232
REMARK   84  A    between atoms: _231  and  _234
REMARK   85  A    between atoms: _234  and  _235
REMARK   86  A    between atoms: _238  and  _240
REMARK   87  A    between atoms: _240  and  _241
REMARK   88  A    between atoms: _240  and  _243
REMARK   89  A    between atoms: _243  and  _244
REMARK                            x       y       z     vdW  Elec       q    Type
REMARK                         _______ _______ _______ _____ _____    ______ ____
ROOT
ATOM      1  CA  GLU A   3      88.617  88.802 -44.119  0.00  0.00    +0.149 C 
ENDROOT
BRANCH   1   2
ATOM      2  C   GLU A   3      88.501  90.286 -43.788  0.00  0.00    +0.244 C 
ATOM      3  O   GLU A   3      89.059  90.751 -42.797  0.00  0.00    -0.273 OA
ATOM      4  N   PRO A   4      87.759  91.038 -44.614  0.00  0.00    -0.272 N 
ATOM      5  CA  PRO A   4      87.522  92.455 -44.315  0.00  0.00    +0.152 C 
ATOM      6  CB  PRO A   4      86.851  92.984 -45.592  0.00  0.00    +0.031 C 
ATOM      7  CG  PRO A   4      87.132  91.949 -46.643  0.00  0.00    +0.024 C 
ATOM      8  CD  PRO A   4      87.176  90.646 -45.908  0.00  0.00    +0.094 C 
BRANCH   5   9
ATOM      9  C   PRO A   4      86.602  92.612 -43.110  0.00  0.00    +0.244 C 
ATOM     10  N   PRO A   5      86.672  93.759 -42.433  0.00  0.00    -0.273 N 
ATOM     11  CA  PRO A   5      85.810  94.025 -41.274  0.00  0.00    +0.140 C 
ATOM     12  CB  PRO A   5      86.222  95.443 -40.840  0.00  0.00    +0.030 C 
ATOM     13  CG  PRO A   5      87.596  95.632 -41.396  0.00  0.00    +0.024 C 
ATOM     14  CD  PRO A   5      87.642  94.841 -42.669  0.00  0.00    +0.094 C 
ATOM     15  O   PRO A   4      85.849  91.694 -42.793  0.00  0.00    -0.273 OA
BRANCH  11  16
ATOM     16  C   PRO A   5      84.333  93.984 -41.646  0.00  0.00    +0.227 C 
ATOM     17  O   PRO A   5      83.980  94.226 -42.804  0.00  0.00    -0.286 OA
ENDBRANCH  11  16
ENDBRANCH   5   9
ENDBRANCH   1   2
BRANCH   1  19
ATOM     18  C   CYS A   2      90.871  87.938 -44.491  0.00  0.00    +0.242 C 
ATOM     19  N   GLU A   3      89.883  88.237 -43.655  0.00  0.00    -0.297 N 
ATOM     20  H   GLU A   3      90.014  88.064 -42.638  0.00  0.00    +0.150 HD
ATOM     21  O   CYS A   2      90.817  88.151 -45.703  0.00  0.00    -0.273 OA
BRANCH  18  22
ATOM     22  CA  CYS A   2      92.103  87.292 -43.872  0.00  0.00    +0.160 C 
BRANCH  22  25
ATOM     23  C   PRO A   1      91.455  84.950 -43.838  0.00  0.00    +0.239 C 
ATOM     24  O   PRO A   1      90.737  85.084 -42.844  0.00  0.00    -0.274 OA
ATOM     25  N   CYS A   2      92.202  85.921 -44.348  0.00  0.00    -0.296 N 
ATOM     26  H   CYS A   2      92.876  85.696 -45.108  0.00  0.00    +0.150 HD
BRANCH  23  31
ATOM     27  N   PRO A   1      91.480  82.523 -43.536  0.00  0.00    -0.210 NA
ATOM     28  CD  PRO A   1      90.406  81.556 -43.829  0.00  0.00    +0.089 C 
ATOM     29  CG  PRO A   1      90.034  81.887 -45.274  0.00  0.00    +0.021 C 
ATOM     30  CB  PRO A   1      90.286  83.358 -45.386  0.00  0.00    +0.028 C 
ATOM     31  CA  PRO A   1      91.533  83.601 -44.527  0.00  0.00    +0.149 C 
ENDBRANCH  23  31
ENDBRANCH  22  25
BRANCH  22  32
ATOM     32  CB  CYS A   2      93.367  88.078 -44.223  0.00  0.00    +0.098 C 
ATOM     33  SG  CYS A   2      93.399  89.771 -43.568  0.00  0.00    -0.080 S 
ENDBRANCH  22  32
ENDBRANCH  18  22
ENDBRANCH   1  19
BRANCH   1  34
ATOM     34  CB  GLU A   3      87.437  88.060 -43.491  0.00  0.00    +0.041 C 
BRANCH  34  35
ATOM     35  CG  GLU A   3      87.403  86.575 -43.760  0.00  0.00    +0.116 C 
BRANCH  35  36
ATOM     36  CD  GLU A   3      86.341  85.872 -42.938  0.00  0.00    +0.365 C 
ATOM     37  OE2 GLU A   3      85.818  86.493 -41.985  0.00  0.00    -0.246 OA
ATOM     38  OE1 GLU A   3      86.030  84.702 -43.245  0.00  0.00    -0.246 OA
ENDBRANCH  35  36
ENDBRANCH  34  35
ENDBRANCH   1  34
TORSDOF 11
REMARK  Name = ../refined-set-2016/5aba/5aba_pocket.pdb
REMARK  89 active torsions:
REMARK  status: ('A' for Active; 'I' for Inactive)
REMARK    1  A    between atoms: _1  and  _3
REMARK    2  A    between atoms: _3  and  _4
REMARK    3  A    between atoms: _3  and  _6
REMARK    4  A    between atoms: _6  and  _7
REMARK    5  A    between atoms: _12  and  _13
REMARK    6  A    between atoms: _15  and  _17
REMARK    7  A    between atoms: _17  and  _18
REMARK    8  A    between atoms: _17  and  _20
REMARK    9  A    between atoms: _20  and  _21
REMARK   10  A    between atoms: _27  and  _29
REMARK   11  A    between atoms: _29  and  _30
REMARK   12  A    between atoms: _29  and  _32
REMARK   13  A    between atoms: _32  and  _33
REMARK   14  A    between atoms: _33  and  _34
REMARK   15  A    between atoms: _34  and  _35
REMARK   16  A    between atoms: _44  and  _46
REMARK   17  A    between atoms: _46  and  _47
REMARK   18  A    between atoms: _46  and  _49
REMARK   19  A    between atoms: _49  and  _50
REMARK   20  A    between atoms: _50  and  _51
REMARK   21  A    between atoms: _56  and  _58
REMARK   22  A    between atoms: _58  and  _59
REMARK   23  A    between atoms: _58  and  _61
REMARK   24  A    between atoms: _61  and  _62
REMARK   25  A    between atoms: _65  and  _67
REMARK   26  A    between atoms: _67  and  _68
REMARK   27  A    between atoms: _67  and  _70
REMARK   28  A    between atoms: _70  and  _71
REMARK   29  A    between atoms: _81  and  _83
REMARK   30  A    between atoms: _83  and  _84
REMARK   31  A    between atoms: _83  and  _86
REMARK   32  A    between atoms: _89  and  _91
REMARK   33  A    between atoms: _91  and  _92
REMARK   34  A    between atoms: _91  and  _94
REMARK   35  A    between atoms: _94  and  _95
REMARK   36  A    between atoms: _98  and  _100
REMARK   37  A    between atoms: _100  and  _101
REMARK   38  A    between atoms: _100  and  _103
REMARK   39  A    between atoms: _103  and  _104
REMARK   40  A    between atoms: _106  and  _108
REMARK   41  A    between atoms: _108  and  _109
REMARK   42  A    between atoms: _108  and  _111
REMARK   43  A    between atoms: _111  and  _112
REMARK   44  A    between atoms: _116  and  _117
REMARK   45  A    between atoms: _123  and  _124
REMARK   46  A    between atoms: _130  and  _131
REMARK   47  A    between atoms: _136  and  _138
REMARK   48  A    between atoms: _138  and  _139
REMARK   49  A    between atoms: _141  and  _143
REMARK   50  A    between atoms: _143  and  _144
REMARK   51  A    between atoms: _143  and  _146
REMARK   52  A    between atoms: _146  and  _147
REMARK   53  A    between atoms: _150  and  _152
REMARK   54  A    between atoms: _152  and  _153
REMARK   55  A    between atoms: _152  and  _155
REMARK   56  A    between atoms: _159  and  _160
REMARK   57  A    between atoms: _165  and  _167
REMARK   58  A    between atoms: _167  and  _168
REMARK   59  A    between atoms: _167  and  _170
REMARK   60  A    between atoms: _172  and  _174
REMARK   61  A    between atoms: _174  and  _175
REMARK   62  A    between atoms: _174  and  _177
REMARK   63  A    between atoms: _177  and  _178
REMARK   64  A    between atoms: _178  and  _179
REMARK   65  A    between atoms: _183  and  _184
REMARK   66  A    between atoms: _190  and  _191
REMARK   67  A    between atoms: _196  and  _198
REMARK   68  A    between atoms: _198  and  _199
REMARK   69  A    between atoms: _198  and  _201
REMARK   70  A    between atoms: _201  and  _202
REMARK   71  A    between atoms: _204  and  _206
REMARK   72  A    between atoms: _206  and  _207
REMARK   73  A    between atoms: _206  and  _209
REMARK   74  A    between atoms: _209  and  _210
REMARK   75  A    between atoms: _213  and  _215
REMARK   76  A    between atoms: _215  and  _216
REMARK   77  A    between atoms: _215  and  _218
REMARK   78  A    between atoms: _220  and  _222
REMARK   79  A    between atoms: _222  and  _223
REMARK   80  A    between atoms: _222  and  _225
REMARK   81  A    between atoms: _225  and  _226
REMARK   82  A    between atoms: _229  and  _231
REMARK   83  A    between atoms: _231  and  _232
REMARK   84  A    between atoms: _231  and  _234
REMARK   85  A    between atoms: _234  and  _235
REMARK   86  A    between atoms: _238  and  _240
REMARK   87  A    between atoms: _240  and  _241
REMARK   88  A    between atoms: _240  and  _243
REMARK   89  A    between atoms: _243  and  _244
REMARK                            x       y       z     vdW  Elec       q    Type
REMARK                         _______ _______ _______ _____ _____    ______ ____
ROOT
ATOM      1  CA  CYS A   3      89.257  96.114 -37.924  0.00  0.00    +0.160 C 
ENDROOT
BRANCH   1   3
ATOM      2  C   ASP A   2      88.596  98.359 -38.576  0.00  0.00    +0.241 C 
ATOM      3  N   CYS A   3      88.282  97.194 -38.021  0.00  0.00    -0.296 N 
ATOM      4  H   CYS A   3      87.322  97.049 -37.648  0.00  0.00    +0.150 HD
ATOM      5  O   ASP A   2      89.718  98.608 -39.040  0.00  0.00    -0.273 OA
BRANCH   2   6
ATOM      6  CA  ASP A   2      87.485  99.405 -38.614  0.00  0.00    +0.160 C 
BRANCH   6   8
ATOM      7  C   SER A   1      85.166  98.687 -38.881  0.00  0.00    +0.241 C 
ATOM      8  N   ASP A   2      86.207  98.930 -38.089  0.00  0.00    -0.297 N 
ATOM      9  H   ASP A   2      86.108  98.777 -37.065  0.00  0.00    +0.150 HD
ATOM     10  O   SER A   1      85.214  98.775 -40.112  0.00  0.00    -0.274 OA
BRANCH   7  11
ATOM     11  CA  SER A   1      83.877  98.267 -38.179  0.00  0.00    +0.174 C 
BRANCH  11  12
ATOM     12  N   SER A   1      82.711  98.501 -39.024  0.00  0.00    -0.236 NA
ATOM     13  H   SER A   1      82.543  97.881 -39.842  0.00  0.00    +0.142 HD
ENDBRANCH  11  12
BRANCH  11  14
ATOM     14  CB  SER A   1      83.960  96.794 -37.776  0.00  0.00    +0.163 C 
BRANCH  14  15
ATOM     15  OG  SER A   1      82.877  96.445 -36.932  0.00  0.00    -0.380 OA
ATOM     16  H   SER A   1      82.949  95.490 -36.683  0.00  0.00    +0.211 HD
ENDBRANCH  14  15
ENDBRANCH  11  14
ENDBRANCH   7  11
ENDBRANCH   6   8
BRANCH   6  17
ATOM     17  CB  ASP A   2      87.918 100.642 -37.834  0.00  0.00    +0.143 C 
BRANCH  17  18
ATOM     18  CG  ASP A   2      87.011 101.825 -38.089  0.00  0.00    +0.367 C 
ATOM     19  OD2 ASP A   2      86.705 102.547 -37.125  0.00  0.00    -0.246 OA
ATOM     20  OD1 ASP A   2      86.591 102.003 -39.248  0.00  0.00    -0.246 OA
ENDBRANCH  17  18
ENDBRANCH   6  17
ENDBRANCH   2   6
ENDBRANCH   1   3
BRANCH   1  21
ATOM     21  C   CYS A   3      88.530  94.791 -37.959  0.00  0.00    +0.242 C 
ATOM     22  O   CYS A   3      87.312  94.736 -37.833  0.00  0.00    -0.273 OA
ATOM     23  N   THR A   4      89.296  93.725 -38.136  0.00  0.00    -0.295 N 
ATOM     24  H   THR A   4      90.320  93.853 -38.268  0.00  0.00    +0.150 HD
BRANCH  23  25
ATOM     25  CA  THR A   4      88.744  92.382 -38.150  0.00  0.00    +0.176 C 
BRANCH  25  26
ATOM     26  C   THR A   4      89.128  91.662 -36.862  0.00  0.00    +0.243 C 
ATOM     27  N   THR A   5      88.212  90.870 -36.318  0.00  0.00    -0.296 N 
ATOM     28  H   THR A   5      87.285  90.758 -36.776  0.00  0.00    +0.150 HD
ATOM     29  O   THR A   4      90.239  91.836 -36.359  0.00  0.00    -0.273 OA
BRANCH  27  30
ATOM     30  CA  THR A   5      88.503  90.156 -35.080  0.00  0.00    +0.164 C 
BRANCH  30  31
ATOM     31  C   THR A   5      88.508  88.646 -35.308  0.00  0.00    +0.229 C 
ATOM     32  O   THR A   5      87.616  88.096 -35.955  0.00  0.00    -0.286 OA
ENDBRANCH  30  31
BRANCH  30  33
ATOM     33  CB  THR A   5      87.491  90.506 -33.972  0.00  0.00    +0.136 C 
ATOM     34  CG2 THR A   5      87.796  89.734 -32.685  0.00  0.00    +0.034 C 
BRANCH  33  35
ATOM     35  OG1 THR A   5      87.561  91.908 -33.683  0.00  0.00    -0.382 OA
ATOM     36  HG1 THR A   5      87.346  92.423 -34.501  0.00  0.00    +0.210 HD
ENDBRANCH  33  35
ENDBRANCH  30  33
ENDBRANCH  27  30
ENDBRANCH  25  26
BRANCH  25  37
ATOM     37  CB  THR A   4      89.238  91.614 -39.374  0.00  0.00    +0.137 C 
ATOM     38  CG2 THR A   4      88.837  90.137 -39.304  0.00  0.00    +0.034 C 
BRANCH  37  39
ATOM     39  OG1 THR A   4      88.647  92.192 -40.544  0.00  0.00    -0.382 OA
ATOM     40  HG1 THR A   4      88.959  91.703 -41.346  0.00  0.00    +0.210 HD
ENDBRANCH  37  39
ENDBRANCH  25  37
ENDBRANCH  23  25
ENDBRANCH   1  21
BRANCH   1  41
ATOM     41  CB  CYS A   3      90.090  96.215 -36.642  0.00  0.00    +0.098 C 
ATOM     42  SG  CYS A   3      89.187  95.856 -35.101  0.00  0.00    -0.080 S 
ENDBRANCH   1  41
TORSDOF 19
REMARK  Name = ../refined-set-2016/5aba/5aba_pocket.pdb
REMARK  89 active torsions:
REMARK  status: ('A' for Active; 'I' for Inactive)
REMARK    1  A    between atoms: _1  and  _3
REMARK    2  A    between atoms: _3  and  _4
REMARK    3  A    between atoms: _3  and  _6
REMARK    4  A    between atoms: _6  and  _7
REMARK    5  A    between atoms: _12  and  _13
REMARK    6  A    between atoms: _15  and  _17
REMARK    7  A    between atoms: _17  and  _18
REMARK    8  A    between atoms: _17  and  _20
REMARK    9  A    between atoms: _20  and  _21
REMARK   10  A    between atoms: _27  and  _29
REMARK   11  A    between atoms: _29  and  _30
REMARK   12  A    between atoms: _29  and  _32
REMARK   13  A    between atoms: _32  and  _33
REMARK   14  A    between atoms: _33  and  _34
REMARK   15  A    between atoms: _34  and  _35
REMARK   16  A    between atoms: _44  and  _46
REMARK   17  A    between atoms: _46  and  _47
REMARK   18  A    between atoms: _46  and  _49
REMARK   19  A    between atoms: _49  and  _50
REMARK   20  A    between atoms: _50  and  _51
REMARK   21  A    between atoms: _56  and  _58
REMARK   22  A    between atoms: _58  and  _59
REMARK   23  A    between atoms: _58  and  _61
REMARK   24  A    between atoms: _61  and  _62
REMARK   25  A    between atoms: _65  and  _67
REMARK   26  A    between atoms: _67  and  _68
REMARK   27  A    between atoms: _67  and  _70
REMARK   28  A    between atoms: _70  and  _71
REMARK   29  A    between atoms: _81  and  _83
REMARK   30  A    between atoms: _83  and  _84
REMARK   31  A    between atoms: _83  and  _86
REMARK   32  A    between atoms: _89  and  _91
REMARK   33  A    between atoms: _91  and  _92
REMARK   34  A    between atoms: _91  and  _94
REMARK   35  A    between atoms: _94  and  _95
REMARK   36  A    between atoms: _98  and  _100
REMARK   37  A    between atoms: _100  and  _101
REMARK   38  A    between atoms: _100  and  _103
REMARK   39  A    between atoms: _103  and  _104
REMARK   40  A    between atoms: _106  and  _108
REMARK   41  A    between atoms: _108  and  _109
REMARK   42  A    between atoms: _108  and  _111
REMARK   43  A    between atoms: _111  and  _112
REMARK   44  A    between atoms: _116  and  _117
REMARK   45  A    between atoms: _123  and  _124
REMARK   46  A    between atoms: _130  and  _131
REMARK   47  A    between atoms: _136  and  _138
REMARK   48  A    between atoms: _138  and  _139
REMARK   49  A    between atoms: _141  and  _143
REMARK   50  A    between atoms: _143  and  _144
REMARK   51  A    between atoms: _143  and  _146
REMARK   52  A    between atoms: _146  and  _147
REMARK   53  A    between atoms: _150  and  _152
REMARK   54  A    between atoms: _152  and  _153
REMARK   55  A    between atoms: _152  and  _155
REMARK   56  A    between atoms: _159  and  _160
REMARK   57  A    between atoms: _165  and  _167
REMARK   58  A    between atoms: _167  and  _168
REMARK   59  A    between atoms: _167  and  _170
REMARK   60  A    between atoms: _172  and  _174
REMARK   61  A    between atoms: _174  and  _175
REMARK   62  A    between atoms: _174  and  _177
REMARK   63  A    between atoms: _177  and  _178
REMARK   64  A    between atoms: _178  and  _179
REMARK   65  A    between atoms: _183  and  _184
REMARK   66  A    between atoms: _190  and  _191
REMARK   67  A    between atoms: _196  and  _198
REMARK   68  A    between atoms: _198  and  _199
REMARK   69  A    between atoms: _198  and  _201
REMARK   70  A    between atoms: _201  and  _202
REMARK   71  A    between atoms: _204  and  _206
REMARK   72  A    between atoms: _206  and  _207
REMARK   73  A    between atoms: _206  and  _209
REMARK   74  A    between atoms: _209  and  _210
REMARK   75  A    between atoms: _213  and  _215
REMARK   76  A    between atoms: _215  and  _216
REMARK   77  A    between atoms: _215  and  _218
REMARK   78  A    between atoms: _220  and  _222
REMARK   79  A    between atoms: _222  and  _223
REMARK   80  A    between atoms: _222  and  _225
REMARK   81  A    between atoms: _225  and  _226
REMARK   82  A    between atoms: _229  and  _231
REMARK   83  A    between atoms: _231  and  _232
REMARK   84  A    between atoms: _231  and  _234
REMARK   85  A    between atoms: _234  and  _235
REMARK   86  A    between atoms: _238  and  _240
REMARK   87  A    between atoms: _240  and  _241
REMARK   88  A    between atoms: _240  and  _243
REMARK   89  A    between atoms: _243  and  _244
REMARK                            x       y       z     vdW  Elec       q    Type
REMARK                         _______ _______ _______ _____ _____    ______ ____
ROOT
ATOM      1  CA  LEU A   1      99.984  87.580 -42.211  0.00  0.00    +0.133 C 
ENDROOT
BRANCH   1   2
ATOM      2  N   LEU A   1     100.773  87.300 -41.034  0.00  0.00    -0.239 NA
ATOM      3  H   LEU A   1     101.515  87.976 -40.761  0.00  0.00    +0.142 HD
ENDBRANCH   1   2
BRANCH   1   4
ATOM      4  C   LEU A   1     100.753  86.962 -43.378  0.00  0.00    +0.224 C 
ATOM      5  O   LEU A   1     101.955  87.204 -43.508  0.00  0.00    -0.287 OA
ENDBRANCH   1   4
BRANCH   1   6
ATOM      6  CB  LEU A   1      99.793  89.085 -42.386  0.00  0.00    +0.025 C 
BRANCH   6   7
ATOM      7  CG  LEU A   1      98.759  89.520 -43.418  0.00  0.00    +0.002 C 
ATOM      8  CD2 LEU A   1      97.355  89.185 -42.909  0.00  0.00    +0.000 C 
ATOM      9  CD1 LEU A   1      98.901  91.010 -43.768  0.00  0.00    +0.000 C 
ENDBRANCH   6   7
ENDBRANCH   1   6
TORSDOF 4
REMARK  Name = ../refined-set-2016/5aba/5aba_pocket.pdb
REMARK  89 active torsions:
REMARK  status: ('A' for Active; 'I' for Inactive)
REMARK    1  A    between atoms: _1  and  _3
REMARK    2  A    between atoms: _3  and  _4
REMARK    3  A    between atoms: _3  and  _6
REMARK    4  A    between atoms: _6  and  _7
REMARK    5  A    between atoms: _12  and  _13
REMARK    6  A    between atoms: _15  and  _17
REMARK    7  A    between atoms: _17  and  _18
REMARK    8  A    between atoms: _17  and  _20
REMARK    9  A    between atoms: _20  and  _21
REMARK   10  A    between atoms: _27  and  _29
REMARK   11  A    between atoms: _29  and  _30
REMARK   12  A    between atoms: _29  and  _32
REMARK   13  A    between atoms: _32  and  _33
REMARK   14  A    between atoms: _33  and  _34
REMARK   15  A    between atoms: _34  and  _35
REMARK   16  A    between atoms: _44  and  _46
REMARK   17  A    between atoms: _46  and  _47
REMARK   18  A    between atoms: _46  and  _49
REMARK   19  A    between atoms: _49  and  _50
REMARK   20  A    between atoms: _50  and  _51
REMARK   21  A    between atoms: _56  and  _58
REMARK   22  A    between atoms: _58  and  _59
REMARK   23  A    between atoms: _58  and  _61
REMARK   24  A    between atoms: _61  and  _62
REMARK   25  A    between atoms: _65  and  _67
REMARK   26  A    between atoms: _67  and  _68
REMARK   27  A    between atoms: _67  and  _70
REMARK   28  A    between atoms: _70  and  _71
REMARK   29  A    between atoms: _81  and  _83
REMARK   30  A    between atoms: _83  and  _84
REMARK   31  A    between atoms: _83  and  _86
REMARK   32  A    between atoms: _89  and  _91
REMARK   33  A    between atoms: _91  and  _92
REMARK   34  A    between atoms: _91  and  _94
REMARK   35  A    between atoms: _94  and  _95
REMARK   36  A    between atoms: _98  and  _100
REMARK   37  A    between atoms: _100  and  _101
REMARK   38  A    between atoms: _100  and  _103
REMARK   39  A    between atoms: _103  and  _104
REMARK   40  A    between atoms: _106  and  _108
REMARK   41  A    between atoms: _108  and  _109
REMARK   42  A    between atoms: _108  and  _111
REMARK   43  A    between atoms: _111  and  _112
REMARK   44  A    between atoms: _116  and  _117
REMARK   45  A    between atoms: _123  and  _124
REMARK   46  A    between atoms: _130  and  _131
REMARK   47  A    between atoms: _136  and  _138
REMARK   48  A    between atoms: _138  and  _139
REMARK   49  A    between atoms: _141  and  _143
REMARK   50  A    between atoms: _143  and  _144
REMARK   51  A    between atoms: _143  and  _146
REMARK   52  A    between atoms: _146  and  _147
REMARK   53  A    between atoms: _150  and  _152
REMARK   54  A    between atoms: _152  and  _153
REMARK   55  A    between atoms: _152  and  _155
REMARK   56  A    between atoms: _159  and  _160
REMARK   57  A    between atoms: _165  and  _167
REMARK   58  A    between atoms: _167  and  _168
REMARK   59  A    between atoms: _167  and  _170
REMARK   60  A    between atoms: _172  and  _174
REMARK   61  A    between atoms: _174  and  _175
REMARK   62  A    between atoms: _174  and  _177
REMARK   63  A    between atoms: _177  and  _178
REMARK   64  A    between atoms: _178  and  _179
REMARK   65  A    between atoms: _183  and  _184
REMARK   66  A    between atoms: _190  and  _191
REMARK   67  A    between atoms: _196  and  _198
REMARK   68  A    between atoms: _198  and  _199
REMARK   69  A    between atoms: _198  and  _201
REMARK   70  A    between atoms: _201  and  _202
REMARK   71  A    between atoms: _204  and  _206
REMARK   72  A    between atoms: _206  and  _207
REMARK   73  A    between atoms: _206  and  _209
REMARK   74  A    between atoms: _209  and  _210
REMARK   75  A    between atoms: _213  and  _215
REMARK   76  A    between atoms: _215  and  _216
REMARK   77  A    between atoms: _215  and  _218
REMARK   78  A    between atoms: _220  and  _222
REMARK   79  A    between atoms: _222  and  _223
REMARK   80  A    between atoms: _222  and  _225
REMARK   81  A    between atoms: _225  and  _226
REMARK   82  A    between atoms: _229  and  _231
REMARK   83  A    between atoms: _231  and  _232
REMARK   84  A    between atoms: _231  and  _234
REMARK   85  A    between atoms: _234  and  _235
REMARK   86  A    between atoms: _238  and  _240
REMARK   87  A    between atoms: _240  and  _241
REMARK   88  A    between atoms: _240  and  _243
REMARK   89  A    between atoms: _243  and  _244
REMARK                            x       y       z     vdW  Elec       q    Type
REMARK                         _______ _______ _______ _____ _____    ______ ____
ROOT
ATOM      1  O   HOH     1      99.837  99.981 -46.315  0.00  0.00    +0.000 OA
ENDROOT
TORSDOF 0
REMARK  Name = ../refined-set-2016/5aba/5aba_pocket.pdb
REMARK  89 active torsions:
REMARK  status: ('A' for Active; 'I' for Inactive)
REMARK    1  A    between atoms: _1  and  _3
REMARK    2  A    between atoms: _3  and  _4
REMARK    3  A    between atoms: _3  and  _6
REMARK    4  A    between atoms: _6  and  _7
REMARK    5  A    between atoms: _12  and  _13
REMARK    6  A    between atoms: _15  and  _17
REMARK    7  A    between atoms: _17  and  _18
REMARK    8  A    between atoms: _17  and  _20
REMARK    9  A    between atoms: _20  and  _21
REMARK   10  A    between atoms: _27  and  _29
REMARK   11  A    between atoms: _29  and  _30
REMARK   12  A    between atoms: _29  and  _32
REMARK   13  A    between atoms: _32  and  _33
REMARK   14  A    between atoms: _33  and  _34
REMARK   15  A    between atoms: _34  and  _35
REMARK   16  A    between atoms: _44  and  _46
REMARK   17  A    between atoms: _46  and  _47
REMARK   18  A    between atoms: _46  and  _49
REMARK   19  A    between atoms: _49  and  _50
REMARK   20  A    between atoms: _50  and  _51
REMARK   21  A    between atoms: _56  and  _58
REMARK   22  A    between atoms: _58  and  _59
REMARK   23  A    between atoms: _58  and  _61
REMARK   24  A    between atoms: _61  and  _62
REMARK   25  A    between atoms: _65  and  _67
REMARK   26  A    between atoms: _67  and  _68
REMARK   27  A    between atoms: _67  and  _70
REMARK   28  A    between atoms: _70  and  _71
REMARK   29  A    between atoms: _81  and  _83
REMARK   30  A    between atoms: _83  and  _84
REMARK   31  A    between atoms: _83  and  _86
REMARK   32  A    between atoms: _89  and  _91
REMARK   33  A    between atoms: _91  and  _92
REMARK   34  A    between atoms: _91  and  _94
REMARK   35  A    between atoms: _94  and  _95
REMARK   36  A    between atoms: _98  and  _100
REMARK   37  A    between atoms: _100  and  _101
REMARK   38  A    between atoms: _100  and  _103
REMARK   39  A    between atoms: _103  and  _104
REMARK   40  A    between atoms: _106  and  _108
REMARK   41  A    between atoms: _108  and  _109
REMARK   42  A    between atoms: _108  and  _111
REMARK   43  A    between atoms: _111  and  _112
REMARK   44  A    between atoms: _116  and  _117
REMARK   45  A    between atoms: _123  and  _124
REMARK   46  A    between atoms: _130  and  _131
REMARK   47  A    between atoms: _136  and  _138
REMARK   48  A    between atoms: _138  and  _139
REMARK   49  A    between atoms: _141  and  _143
REMARK   50  A    between atoms: _143  and  _144
REMARK   51  A    between atoms: _143  and  _146
REMARK   52  A    between atoms: _146  and  _147
REMARK   53  A    between atoms: _150  and  _152
REMARK   54  A    between atoms: _152  and  _153
REMARK   55  A    between atoms: _152  and  _155
REMARK   56  A    between atoms: _159  and  _160
REMARK   57  A    between atoms: _165  and  _167
REMARK   58  A    between atoms: _167  and  _168
REMARK   59  A    between atoms: _167  and  _170
REMARK   60  A    between atoms: _172  and  _174
REMARK   61  A    between atoms: _174  and  _175
REMARK   62  A    between atoms: _174  and  _177
REMARK   63  A    between atoms: _177  and  _178
REMARK   64  A    between atoms: _178  and  _179
REMARK   65  A    between atoms: _183  and  _184
REMARK   66  A    between atoms: _190  and  _191
REMARK   67  A    between atoms: _196  and  _198
REMARK   68  A    between atoms: _198  and  _199
REMARK   69  A    between atoms: _198  and  _201
REMARK   70  A    between atoms: _201  and  _202
REMARK   71  A    between atoms: _204  and  _206
REMARK   72  A    between atoms: _206  and  _207
REMARK   73  A    between atoms: _206  and  _209
REMARK   74  A    between atoms: _209  and  _210
REMARK   75  A    between atoms: _213  and  _215
REMARK   76  A    between atoms: _215  and  _216
REMARK   77  A    between atoms: _215  and  _218
REMARK   78  A    between atoms: _220  and  _222
REMARK   79  A    between atoms: _222  and  _223
REMARK   80  A    between atoms: _222  and  _225
REMARK   81  A    between atoms: _225  and  _226
REMARK   82  A    between atoms: _229  and  _231
REMARK   83  A    between atoms: _231  and  _232
REMARK   84  A    between atoms: _231  and  _234
REMARK   85  A    between atoms: _234  and  _235
REMARK   86  A    between atoms: _238  and  _240
REMARK   87  A    between atoms: _240  and  _241
REMARK   88  A    between atoms: _240  and  _243
REMARK   89  A    between atoms: _243  and  _244
REMARK                            x       y       z     vdW  Elec       q    Type
REMARK                         _______ _______ _______ _____ _____    ______ ____
ROOT
ATOM      1  O   HOH     1      95.522 102.445 -39.838  0.00  0.00    +0.000 OA
ENDROOT
TORSDOF 0
REMARK  Name = ../refined-set-2016/5aba/5aba_pocket.pdb
REMARK  89 active torsions:
REMARK  status: ('A' for Active; 'I' for Inactive)
REMARK    1  A    between atoms: _1  and  _3
REMARK    2  A    between atoms: _3  and  _4
REMARK    3  A    between atoms: _3  and  _6
REMARK    4  A    between atoms: _6  and  _7
REMARK    5  A    between atoms: _12  and  _13
REMARK    6  A    between atoms: _15  and  _17
REMARK    7  A    between atoms: _17  and  _18
REMARK    8  A    between atoms: _17  and  _20
REMARK    9  A    between atoms: _20  and  _21
REMARK   10  A    between atoms: _27  and  _29
REMARK   11  A    between atoms: _29  and  _30
REMARK   12  A    between atoms: _29  and  _32
REMARK   13  A    between atoms: _32  and  _33
REMARK   14  A    between atoms: _33  and  _34
REMARK   15  A    between atoms: _34  and  _35
REMARK   16  A    between atoms: _44  and  _46
REMARK   17  A    between atoms: _46  and  _47
REMARK   18  A    between atoms: _46  and  _49
REMARK   19  A    between atoms: _49  and  _50
REMARK   20  A    between atoms: _50  and  _51
REMARK   21  A    between atoms: _56  and  _58
REMARK   22  A    between atoms: _58  and  _59
REMARK   23  A    between atoms: _58  and  _61
REMARK   24  A    between atoms: _61  and  _62
REMARK   25  A    between atoms: _65  and  _67
REMARK   26  A    between atoms: _67  and  _68
REMARK   27  A    between atoms: _67  and  _70
REMARK   28  A    between atoms: _70  and  _71
REMARK   29  A    between atoms: _81  and  _83
REMARK   30  A    between atoms: _83  and  _84
REMARK   31  A    between atoms: _83  and  _86
REMARK   32  A    between atoms: _89  and  _91
REMARK   33  A    between atoms: _91  and  _92
REMARK   34  A    between atoms: _91  and  _94
REMARK   35  A    between atoms: _94  and  _95
REMARK   36  A    between atoms: _98  and  _100
REMARK   37  A    between atoms: _100  and  _101
REMARK   38  A    between atoms: _100  and  _103
REMARK   39  A    between atoms: _103  and  _104
REMARK   40  A    between atoms: _106  and  _108
REMARK   41  A    between atoms: _108  and  _109
REMARK   42  A    between atoms: _108  and  _111
REMARK   43  A    between atoms: _111  and  _112
REMARK   44  A    between atoms: _116  and  _117
REMARK   45  A    between atoms: _123  and  _124
REMARK   46  A    between atoms: _130  and  _131
REMARK   47  A    between atoms: _136  and  _138
REMARK   48  A    between atoms: _138  and  _139
REMARK   49  A    between atoms: _141  and  _143
REMARK   50  A    between atoms: _143  and  _144
REMARK   51  A    between atoms: _143  and  _146
REMARK   52  A    between atoms: _146  and  _147
REMARK   53  A    between atoms: _150  and  _152
REMARK   54  A    between atoms: _152  and  _153
REMARK   55  A    between atoms: _152  and  _155
REMARK   56  A    between atoms: _159  and  _160
REMARK   57  A    between atoms: _165  and  _167
REMARK   58  A    between atoms: _167  and  _168
REMARK   59  A    between atoms: _167  and  _170
REMARK   60  A    between atoms: _172  and  _174
REMARK   61  A    between atoms: _174  and  _175
REMARK   62  A    between atoms: _174  and  _177
REMARK   63  A    between atoms: _177  and  _178
REMARK   64  A    between atoms: _178  and  _179
REMARK   65  A    between atoms: _183  and  _184
REMARK   66  A    between atoms: _190  and  _191
REMARK   67  A    between atoms: _196  and  _198
REMARK   68  A    between atoms: _198  and  _199
REMARK   69  A    between atoms: _198  and  _201
REMARK   70  A    between atoms: _201  and  _202
REMARK   71  A    between atoms: _204  and  _206
REMARK   72  A    between atoms: _206  and  _207
REMARK   73  A    between atoms: _206  and  _209
REMARK   74  A    between atoms: _209  and  _210
REMARK   75  A    between atoms: _213  and  _215
REMARK   76  A    between atoms: _215  and  _216
REMARK   77  A    between atoms: _215  and  _218
REMARK   78  A    between atoms: _220  and  _222
REMARK   79  A    between atoms: _222  and  _223
REMARK   80  A    between atoms: _222  and  _225
REMARK   81  A    between atoms: _225  and  _226
REMARK   82  A    between atoms: _229  and  _231
REMARK   83  A    between atoms: _231  and  _232
REMARK   84  A    between atoms: _231  and  _234
REMARK   85  A    between atoms: _234  and  _235
REMARK   86  A    between atoms: _238  and  _240
REMARK   87  A    between atoms: _240  and  _241
REMARK   88  A    between atoms: _240  and  _243
REMARK   89  A    between atoms: _243  and  _244
REMARK                            x       y       z     vdW  Elec       q    Type
REMARK                         _______ _______ _______ _____ _____    ______ ____
ROOT
ATOM      1  O   HOH     1      92.261  97.796 -40.084  0.00  0.00    +0.000 OA
ENDROOT
TORSDOF 0
REMARK  Name = ../refined-set-2016/5aba/5aba_pocket.pdb
REMARK  89 active torsions:
REMARK  status: ('A' for Active; 'I' for Inactive)
REMARK    1  A    between atoms: _1  and  _3
REMARK    2  A    between atoms: _3  and  _4
REMARK    3  A    between atoms: _3  and  _6
REMARK    4  A    between atoms: _6  and  _7
REMARK    5  A    between atoms: _12  and  _13
REMARK    6  A    between atoms: _15  and  _17
REMARK    7  A    between atoms: _17  and  _18
REMARK    8  A    between atoms: _17  and  _20
REMARK    9  A    between atoms: _20  and  _21
REMARK   10  A    between atoms: _27  and  _29
REMARK   11  A    between atoms: _29  and  _30
REMARK   12  A    between atoms: _29  and  _32
REMARK   13  A    between atoms: _32  and  _33
REMARK   14  A    between atoms: _33  and  _34
REMARK   15  A    between atoms: _34  and  _35
REMARK   16  A    between atoms: _44  and  _46
REMARK   17  A    between atoms: _46  and  _47
REMARK   18  A    between atoms: _46  and  _49
REMARK   19  A    between atoms: _49  and  _50
REMARK   20  A    between atoms: _50  and  _51
REMARK   21  A    between atoms: _56  and  _58
REMARK   22  A    between atoms: _58  and  _59
REMARK   23  A    between atoms: _58  and  _61
REMARK   24  A    between atoms: _61  and  _62
REMARK   25  A    between atoms: _65  and  _67
REMARK   26  A    between atoms: _67  and  _68
REMARK   27  A    between atoms: _67  and  _70
REMARK   28  A    between atoms: _70  and  _71
REMARK   29  A    between atoms: _81  and  _83
REMARK   30  A    between atoms: _83  and  _84
REMARK   31  A    between atoms: _83  and  _86
REMARK   32  A    between atoms: _89  and  _91
REMARK   33  A    between atoms: _91  and  _92
REMARK   34  A    between atoms: _91  and  _94
REMARK   35  A    between atoms: _94  and  _95
REMARK   36  A    between atoms: _98  and  _100
REMARK   37  A    between atoms: _100  and  _101
REMARK   38  A    between atoms: _100  and  _103
REMARK   39  A    between atoms: _103  and  _104
REMARK   40  A    between atoms: _106  and  _108
REMARK   41  A    between atoms: _108  and  _109
REMARK   42  A    between atoms: _108  and  _111
REMARK   43  A    between atoms: _111  and  _112
REMARK   44  A    between atoms: _116  and  _117
REMARK   45  A    between atoms: _123  and  _124
REMARK   46  A    between atoms: _130  and  _131
REMARK   47  A    between atoms: _136  and  _138
REMARK   48  A    between atoms: _138  and  _139
REMARK   49  A    between atoms: _141  and  _143
REMARK   50  A    between atoms: _143  and  _144
REMARK   51  A    between atoms: _143  and  _146
REMARK   52  A    between atoms: _146  and  _147
REMARK   53  A    between atoms: _150  and  _152
REMARK   54  A    between atoms: _152  and  _153
REMARK   55  A    between atoms: _152  and  _155
REMARK   56  A    between atoms: _159  and  _160
REMARK   57  A    between atoms: _165  and  _167
REMARK   58  A    between atoms: _167  and  _168
REMARK   59  A    between atoms: _167  and  _170
REMARK   60  A    between atoms: _172  and  _174
REMARK   61  A    between atoms: _174  and  _175
REMARK   62  A    between atoms: _174  and  _177
REMARK   63  A    between atoms: _177  and  _178
REMARK   64  A    between atoms: _178  and  _179
REMARK   65  A    between atoms: _183  and  _184
REMARK   66  A    between atoms: _190  and  _191
REMARK   67  A    between atoms: _196  and  _198
REMARK   68  A    between atoms: _198  and  _199
REMARK   69  A    between atoms: _198  and  _201
REMARK   70  A    between atoms: _201  and  _202
REMARK   71  A    between atoms: _204  and  _206
REMARK   72  A    between atoms: _206  and  _207
REMARK   73  A    between atoms: _206  and  _209
REMARK   74  A    between atoms: _209  and  _210
REMARK   75  A    between atoms: _213  and  _215
REMARK   76  A    between atoms: _215  and  _216
REMARK   77  A    between atoms: _215  and  _218
REMARK   78  A    between atoms: _220  and  _222
REMARK   79  A    between atoms: _222  and  _223
REMARK   80  A    between atoms: _222  and  _225
REMARK   81  A    between atoms: _225  and  _226
REMARK   82  A    between atoms: _229  and  _231
REMARK   83  A    between atoms: _231  and  _232
REMARK   84  A    between atoms: _231  and  _234
REMARK   85  A    between atoms: _234  and  _235
REMARK   86  A    between atoms: _238  and  _240
REMARK   87  A    between atoms: _240  and  _241
REMARK   88  A    between atoms: _240  and  _243
REMARK   89  A    between atoms: _243  and  _244
REMARK                            x       y       z     vdW  Elec       q    Type
REMARK                         _______ _______ _______ _____ _____    ______ ____
ROOT
ATOM      1  O   HOH     1      93.403 100.820 -39.934  0.00  0.00    +0.000 OA
ENDROOT
TORSDOF 0
REMARK  Name = ../refined-set-2016/5aba/5aba_pocket.pdb
REMARK  89 active torsions:
REMARK  status: ('A' for Active; 'I' for Inactive)
REMARK    1  A    between atoms: _1  and  _3
REMARK    2  A    between atoms: _3  and  _4
REMARK    3  A    between atoms: _3  and  _6
REMARK    4  A    between atoms: _6  and  _7
REMARK    5  A    between atoms: _12  and  _13
REMARK    6  A    between atoms: _15  and  _17
REMARK    7  A    between atoms: _17  and  _18
REMARK    8  A    between atoms: _17  and  _20
REMARK    9  A    between atoms: _20  and  _21
REMARK   10  A    between atoms: _27  and  _29
REMARK   11  A    between atoms: _29  and  _30
REMARK   12  A    between atoms: _29  and  _32
REMARK   13  A    between atoms: _32  and  _33
REMARK   14  A    between atoms: _33  and  _34
REMARK   15  A    between atoms: _34  and  _35
REMARK   16  A    between atoms: _44  and  _46
REMARK   17  A    between atoms: _46  and  _47
REMARK   18  A    between atoms: _46  and  _49
REMARK   19  A    between atoms: _49  and  _50
REMARK   20  A    between atoms: _50  and  _51
REMARK   21  A    between atoms: _56  and  _58
REMARK   22  A    between atoms: _58  and  _59
REMARK   23  A    between atoms: _58  and  _61
REMARK   24  A    between atoms: _61  and  _62
REMARK   25  A    between atoms: _65  and  _67
REMARK   26  A    between atoms: _67  and  _68
REMARK   27  A    between atoms: _67  and  _70
REMARK   28  A    between atoms: _70  and  _71
REMARK   29  A    between atoms: _81  and  _83
REMARK   30  A    between atoms: _83  and  _84
REMARK   31  A    between atoms: _83  and  _86
REMARK   32  A    between atoms: _89  and  _91
REMARK   33  A    between atoms: _91  and  _92
REMARK   34  A    between atoms: _91  and  _94
REMARK   35  A    between atoms: _94  and  _95
REMARK   36  A    between atoms: _98  and  _100
REMARK   37  A    between atoms: _100  and  _101
REMARK   38  A    between atoms: _100  and  _103
REMARK   39  A    between atoms: _103  and  _104
REMARK   40  A    between atoms: _106  and  _108
REMARK   41  A    between atoms: _108  and  _109
REMARK   42  A    between atoms: _108  and  _111
REMARK   43  A    between atoms: _111  and  _112
REMARK   44  A    between atoms: _116  and  _117
REMARK   45  A    between atoms: _123  and  _124
REMARK   46  A    between atoms: _130  and  _131
REMARK   47  A    between atoms: _136  and  _138
REMARK   48  A    between atoms: _138  and  _139
REMARK   49  A    between atoms: _141  and  _143
REMARK   50  A    between atoms: _143  and  _144
REMARK   51  A    between atoms: _143  and  _146
REMARK   52  A    between atoms: _146  and  _147
REMARK   53  A    between atoms: _150  and  _152
REMARK   54  A    between atoms: _152  and  _153
REMARK   55  A    between atoms: _152  and  _155
REMARK   56  A    between atoms: _159  and  _160
REMARK   57  A    between atoms: _165  and  _167
REMARK   58  A    between atoms: _167  and  _168
REMARK   59  A    between atoms: _167  and  _170
REMARK   60  A    between atoms: _172  and  _174
REMARK   61  A    between atoms: _174  and  _175
REMARK   62  A    between atoms: _174  and  _177
REMARK   63  A    between atoms: _177  and  _178
REMARK   64  A    between atoms: _178  and  _179
REMARK   65  A    between atoms: _183  and  _184
REMARK   66  A    between atoms: _190  and  _191
REMARK   67  A    between atoms: _196  and  _198
REMARK   68  A    between atoms: _198  and  _199
REMARK   69  A    between atoms: _198  and  _201
REMARK   70  A    between atoms: _201  and  _202
REMARK   71  A    between atoms: _204  and  _206
REMARK   72  A    between atoms: _206  and  _207
REMARK   73  A    between atoms: _206  and  _209
REMARK   74  A    between atoms: _209  and  _210
REMARK   75  A    between atoms: _213  and  _215
REMARK   76  A    between atoms: _215  and  _216
REMARK   77  A    between atoms: _215  and  _218
REMARK   78  A    between atoms: _220  and  _222
REMARK   79  A    between atoms: _222  and  _223
REMARK   80  A    between atoms: _222  and  _225
REMARK   81  A    between atoms: _225  and  _226
REMARK   82  A    between atoms: _229  and  _231
REMARK   83  A    between atoms: _231  and  _232
REMARK   84  A    between atoms: _231  and  _234
REMARK   85  A    between atoms: _234  and  _235
REMARK   86  A    between atoms: _238  and  _240
REMARK   87  A    between atoms: _240  and  _241
REMARK   88  A    between atoms: _240  and  _243
REMARK   89  A    between atoms: _243  and  _244
REMARK                            x       y       z     vdW  Elec       q    Type
REMARK                         _______ _______ _______ _____ _____    ______ ____
ROOT
ATOM      1  O   HOH     1      99.269 103.759 -39.439  0.00  0.00    +0.000 OA
ENDROOT
TORSDOF 0
REMARK  Name = ../refined-set-2016/5aba/5aba_pocket.pdb
REMARK  89 active torsions:
REMARK  status: ('A' for Active; 'I' for Inactive)
REMARK    1  A    between atoms: _1  and  _3
REMARK    2  A    between atoms: _3  and  _4
REMARK    3  A    between atoms: _3  and  _6
REMARK    4  A    between atoms: _6  and  _7
REMARK    5  A    between atoms: _12  and  _13
REMARK    6  A    between atoms: _15  and  _17
REMARK    7  A    between atoms: _17  and  _18
REMARK    8  A    between atoms: _17  and  _20
REMARK    9  A    between atoms: _20  and  _21
REMARK   10  A    between atoms: _27  and  _29
REMARK   11  A    between atoms: _29  and  _30
REMARK   12  A    between atoms: _29  and  _32
REMARK   13  A    between atoms: _32  and  _33
REMARK   14  A    between atoms: _33  and  _34
REMARK   15  A    between atoms: _34  and  _35
REMARK   16  A    between atoms: _44  and  _46
REMARK   17  A    between atoms: _46  and  _47
REMARK   18  A    between atoms: _46  and  _49
REMARK   19  A    between atoms: _49  and  _50
REMARK   20  A    between atoms: _50  and  _51
REMARK   21  A    between atoms: _56  and  _58
REMARK   22  A    between atoms: _58  and  _59
REMARK   23  A    between atoms: _58  and  _61
REMARK   24  A    between atoms: _61  and  _62
REMARK   25  A    between atoms: _65  and  _67
REMARK   26  A    between atoms: _67  and  _68
REMARK   27  A    between atoms: _67  and  _70
REMARK   28  A    between atoms: _70  and  _71
REMARK   29  A    between atoms: _81  and  _83
REMARK   30  A    between atoms: _83  and  _84
REMARK   31  A    between atoms: _83  and  _86
REMARK   32  A    between atoms: _89  and  _91
REMARK   33  A    between atoms: _91  and  _92
REMARK   34  A    between atoms: _91  and  _94
REMARK   35  A    between atoms: _94  and  _95
REMARK   36  A    between atoms: _98  and  _100
REMARK   37  A    between atoms: _100  and  _101
REMARK   38  A    between atoms: _100  and  _103
REMARK   39  A    between atoms: _103  and  _104
REMARK   40  A    between atoms: _106  and  _108
REMARK   41  A    between atoms: _108  and  _109
REMARK   42  A    between atoms: _108  and  _111
REMARK   43  A    between atoms: _111  and  _112
REMARK   44  A    between atoms: _116  and  _117
REMARK   45  A    between atoms: _123  and  _124
REMARK   46  A    between atoms: _130  and  _131
REMARK   47  A    between atoms: _136  and  _138
REMARK   48  A    between atoms: _138  and  _139
REMARK   49  A    between atoms: _141  and  _143
REMARK   50  A    between atoms: _143  and  _144
REMARK   51  A    between atoms: _143  and  _146
REMARK   52  A    between atoms: _146  and  _147
REMARK   53  A    between atoms: _150  and  _152
REMARK   54  A    between atoms: _152  and  _153
REMARK   55  A    between atoms: _152  and  _155
REMARK   56  A    between atoms: _159  and  _160
REMARK   57  A    between atoms: _165  and  _167
REMARK   58  A    between atoms: _167  and  _168
REMARK   59  A    between atoms: _167  and  _170
REMARK   60  A    between atoms: _172  and  _174
REMARK   61  A    between atoms: _174  and  _175
REMARK   62  A    between atoms: _174  and  _177
REMARK   63  A    between atoms: _177  and  _178
REMARK   64  A    between atoms: _178  and  _179
REMARK   65  A    between atoms: _183  and  _184
REMARK   66  A    between atoms: _190  and  _191
REMARK   67  A    between atoms: _196  and  _198
REMARK   68  A    between atoms: _198  and  _199
REMARK   69  A    between atoms: _198  and  _201
REMARK   70  A    between atoms: _201  and  _202
REMARK   71  A    between atoms: _204  and  _206
REMARK   72  A    between atoms: _206  and  _207
REMARK   73  A    between atoms: _206  and  _209
REMARK   74  A    between atoms: _209  and  _210
REMARK   75  A    between atoms: _213  and  _215
REMARK   76  A    between atoms: _215  and  _216
REMARK   77  A    between atoms: _215  and  _218
REMARK   78  A    between atoms: _220  and  _222
REMARK   79  A    between atoms: _222  and  _223
REMARK   80  A    between atoms: _222  and  _225
REMARK   81  A    between atoms: _225  and  _226
REMARK   82  A    between atoms: _229  and  _231
REMARK   83  A    between atoms: _231  and  _232
REMARK   84  A    between atoms: _231  and  _234
REMARK   85  A    between atoms: _234  and  _235
REMARK   86  A    between atoms: _238  and  _240
REMARK   87  A    between atoms: _240  and  _241
REMARK   88  A    between atoms: _240  and  _243
REMARK   89  A    between atoms: _243  and  _244
REMARK                            x       y       z     vdW  Elec       q    Type
REMARK                         _______ _______ _______ _____ _____    ______ ____
ROOT
ATOM      1  O   HOH     1      95.828  97.726 -50.857  0.00  0.00    +0.000 OA
ENDROOT
TORSDOF 0
REMARK  Name = ../refined-set-2016/5aba/5aba_pocket.pdb
REMARK  89 active torsions:
REMARK  status: ('A' for Active; 'I' for Inactive)
REMARK    1  A    between atoms: _1  and  _3
REMARK    2  A    between atoms: _3  and  _4
REMARK    3  A    between atoms: _3  and  _6
REMARK    4  A    between atoms: _6  and  _7
REMARK    5  A    between atoms: _12  and  _13
REMARK    6  A    between atoms: _15  and  _17
REMARK    7  A    between atoms: _17  and  _18
REMARK    8  A    between atoms: _17  and  _20
REMARK    9  A    between atoms: _20  and  _21
REMARK   10  A    between atoms: _27  and  _29
REMARK   11  A    between atoms: _29  and  _30
REMARK   12  A    between atoms: _29  and  _32
REMARK   13  A    between atoms: _32  and  _33
REMARK   14  A    between atoms: _33  and  _34
REMARK   15  A    between atoms: _34  and  _35
REMARK   16  A    between atoms: _44  and  _46
REMARK   17  A    between atoms: _46  and  _47
REMARK   18  A    between atoms: _46  and  _49
REMARK   19  A    between atoms: _49  and  _50
REMARK   20  A    between atoms: _50  and  _51
REMARK   21  A    between atoms: _56  and  _58
REMARK   22  A    between atoms: _58  and  _59
REMARK   23  A    between atoms: _58  and  _61
REMARK   24  A    between atoms: _61  and  _62
REMARK   25  A    between atoms: _65  and  _67
REMARK   26  A    between atoms: _67  and  _68
REMARK   27  A    between atoms: _67  and  _70
REMARK   28  A    between atoms: _70  and  _71
REMARK   29  A    between atoms: _81  and  _83
REMARK   30  A    between atoms: _83  and  _84
REMARK   31  A    between atoms: _83  and  _86
REMARK   32  A    between atoms: _89  and  _91
REMARK   33  A    between atoms: _91  and  _92
REMARK   34  A    between atoms: _91  and  _94
REMARK   35  A    between atoms: _94  and  _95
REMARK   36  A    between atoms: _98  and  _100
REMARK   37  A    between atoms: _100  and  _101
REMARK   38  A    between atoms: _100  and  _103
REMARK   39  A    between atoms: _103  and  _104
REMARK   40  A    between atoms: _106  and  _108
REMARK   41  A    between atoms: _108  and  _109
REMARK   42  A    between atoms: _108  and  _111
REMARK   43  A    between atoms: _111  and  _112
REMARK   44  A    between atoms: _116  and  _117
REMARK   45  A    between atoms: _123  and  _124
REMARK   46  A    between atoms: _130  and  _131
REMARK   47  A    between atoms: _136  and  _138
REMARK   48  A    between atoms: _138  and  _139
REMARK   49  A    between atoms: _141  and  _143
REMARK   50  A    between atoms: _143  and  _144
REMARK   51  A    between atoms: _143  and  _146
REMARK   52  A    between atoms: _146  and  _147
REMARK   53  A    between atoms: _150  and  _152
REMARK   54  A    between atoms: _152  and  _153
REMARK   55  A    between atoms: _152  and  _155
REMARK   56  A    between atoms: _159  and  _160
REMARK   57  A    between atoms: _165  and  _167
REMARK   58  A    between atoms: _167  and  _168
REMARK   59  A    between atoms: _167  and  _170
REMARK   60  A    between atoms: _172  and  _174
REMARK   61  A    between atoms: _174  and  _175
REMARK   62  A    between atoms: _174  and  _177
REMARK   63  A    between atoms: _177  and  _178
REMARK   64  A    between atoms: _178  and  _179
REMARK   65  A    between atoms: _183  and  _184
REMARK   66  A    between atoms: _190  and  _191
REMARK   67  A    between atoms: _196  and  _198
REMARK   68  A    between atoms: _198  and  _199
REMARK   69  A    between atoms: _198  and  _201
REMARK   70  A    between atoms: _201  and  _202
REMARK   71  A    between atoms: _204  and  _206
REMARK   72  A    between atoms: _206  and  _207
REMARK   73  A    between atoms: _206  and  _209
REMARK   74  A    between atoms: _209  and  _210
REMARK   75  A    between atoms: _213  and  _215
REMARK   76  A    between atoms: _215  and  _216
REMARK   77  A    between atoms: _215  and  _218
REMARK   78  A    between atoms: _220  and  _222
REMARK   79  A    between atoms: _222  and  _223
REMARK   80  A    between atoms: _222  and  _225
REMARK   81  A    between atoms: _225  and  _226
REMARK   82  A    between atoms: _229  and  _231
REMARK   83  A    between atoms: _231  and  _232
REMARK   84  A    between atoms: _231  and  _234
REMARK   85  A    between atoms: _234  and  _235
REMARK   86  A    between atoms: _238  and  _240
REMARK   87  A    between atoms: _240  and  _241
REMARK   88  A    between atoms: _240  and  _243
REMARK   89  A    between atoms: _243  and  _244
REMARK                            x       y       z     vdW  Elec       q    Type
REMARK                         _______ _______ _______ _____ _____    ______ ____
ROOT
ATOM      1  O   HOH     1      92.982  99.941 -48.566  0.00  0.00    +0.000 OA
ENDROOT
TORSDOF 0
REMARK  Name = ../refined-set-2016/5aba/5aba_pocket.pdb
REMARK  89 active torsions:
REMARK  status: ('A' for Active; 'I' for Inactive)
REMARK    1  A    between atoms: _1  and  _3
REMARK    2  A    between atoms: _3  and  _4
REMARK    3  A    between atoms: _3  and  _6
REMARK    4  A    between atoms: _6  and  _7
REMARK    5  A    between atoms: _12  and  _13
REMARK    6  A    between atoms: _15  and  _17
REMARK    7  A    between atoms: _17  and  _18
REMARK    8  A    between atoms: _17  and  _20
REMARK    9  A    between atoms: _20  and  _21
REMARK   10  A    between atoms: _27  and  _29
REMARK   11  A    between atoms: _29  and  _30
REMARK   12  A    between atoms: _29  and  _32
REMARK   13  A    between atoms: _32  and  _33
REMARK   14  A    between atoms: _33  and  _34
REMARK   15  A    between atoms: _34  and  _35
REMARK   16  A    between atoms: _44  and  _46
REMARK   17  A    between atoms: _46  and  _47
REMARK   18  A    between atoms: _46  and  _49
REMARK   19  A    between atoms: _49  and  _50
REMARK   20  A    between atoms: _50  and  _51
REMARK   21  A    between atoms: _56  and  _58
REMARK   22  A    between atoms: _58  and  _59
REMARK   23  A    between atoms: _58  and  _61
REMARK   24  A    between atoms: _61  and  _62
REMARK   25  A    between atoms: _65  and  _67
REMARK   26  A    between atoms: _67  and  _68
REMARK   27  A    between atoms: _67  and  _70
REMARK   28  A    between atoms: _70  and  _71
REMARK   29  A    between atoms: _81  and  _83
REMARK   30  A    between atoms: _83  and  _84
REMARK   31  A    between atoms: _83  and  _86
REMARK   32  A    between atoms: _89  and  _91
REMARK   33  A    between atoms: _91  and  _92
REMARK   34  A    between atoms: _91  and  _94
REMARK   35  A    between atoms: _94  and  _95
REMARK   36  A    between atoms: _98  and  _100
REMARK   37  A    between atoms: _100  and  _101
REMARK   38  A    between atoms: _100  and  _103
REMARK   39  A    between atoms: _103  and  _104
REMARK   40  A    between atoms: _106  and  _108
REMARK   41  A    between atoms: _108  and  _109
REMARK   42  A    between atoms: _108  and  _111
REMARK   43  A    between atoms: _111  and  _112
REMARK   44  A    between atoms: _116  and  _117
REMARK   45  A    between atoms: _123  and  _124
REMARK   46  A    between atoms: _130  and  _131
REMARK   47  A    between atoms: _136  and  _138
REMARK   48  A    between atoms: _138  and  _139
REMARK   49  A    between atoms: _141  and  _143
REMARK   50  A    between atoms: _143  and  _144
REMARK   51  A    between atoms: _143  and  _146
REMARK   52  A    between atoms: _146  and  _147
REMARK   53  A    between atoms: _150  and  _152
REMARK   54  A    between atoms: _152  and  _153
REMARK   55  A    between atoms: _152  and  _155
REMARK   56  A    between atoms: _159  and  _160
REMARK   57  A    between atoms: _165  and  _167
REMARK   58  A    between atoms: _167  and  _168
REMARK   59  A    between atoms: _167  and  _170
REMARK   60  A    between atoms: _172  and  _174
REMARK   61  A    between atoms: _174  and  _175
REMARK   62  A    between atoms: _174  and  _177
REMARK   63  A    between atoms: _177  and  _178
REMARK   64  A    between atoms: _178  and  _179
REMARK   65  A    between atoms: _183  and  _184
REMARK   66  A    between atoms: _190  and  _191
REMARK   67  A    between atoms: _196  and  _198
REMARK   68  A    between atoms: _198  and  _199
REMARK   69  A    between atoms: _198  and  _201
REMARK   70  A    between atoms: _201  and  _202
REMARK   71  A    between atoms: _204  and  _206
REMARK   72  A    between atoms: _206  and  _207
REMARK   73  A    between atoms: _206  and  _209
REMARK   74  A    between atoms: _209  and  _210
REMARK   75  A    between atoms: _213  and  _215
REMARK   76  A    between atoms: _215  and  _216
REMARK   77  A    between atoms: _215  and  _218
REMARK   78  A    between atoms: _220  and  _222
REMARK   79  A    between atoms: _222  and  _223
REMARK   80  A    between atoms: _222  and  _225
REMARK   81  A    between atoms: _225  and  _226
REMARK   82  A    between atoms: _229  and  _231
REMARK   83  A    between atoms: _231  and  _232
REMARK   84  A    between atoms: _231  and  _234
REMARK   85  A    between atoms: _234  and  _235
REMARK   86  A    between atoms: _238  and  _240
REMARK   87  A    between atoms: _240  and  _241
REMARK   88  A    between atoms: _240  and  _243
REMARK   89  A    between atoms: _243  and  _244
REMARK                            x       y       z     vdW  Elec       q    Type
REMARK                         _______ _______ _______ _____ _____    ______ ____
ROOT
ATOM      1  O   HOH     1      94.364  94.481 -52.100  0.00  0.00    +0.000 OA
ENDROOT
TORSDOF 0
REMARK  Name = ../refined-set-2016/5aba/5aba_pocket.pdb
REMARK  89 active torsions:
REMARK  status: ('A' for Active; 'I' for Inactive)
REMARK    1  A    between atoms: _1  and  _3
REMARK    2  A    between atoms: _3  and  _4
REMARK    3  A    between atoms: _3  and  _6
REMARK    4  A    between atoms: _6  and  _7
REMARK    5  A    between atoms: _12  and  _13
REMARK    6  A    between atoms: _15  and  _17
REMARK    7  A    between atoms: _17  and  _18
REMARK    8  A    between atoms: _17  and  _20
REMARK    9  A    between atoms: _20  and  _21
REMARK   10  A    between atoms: _27  and  _29
REMARK   11  A    between atoms: _29  and  _30
REMARK   12  A    between atoms: _29  and  _32
REMARK   13  A    between atoms: _32  and  _33
REMARK   14  A    between atoms: _33  and  _34
REMARK   15  A    between atoms: _34  and  _35
REMARK   16  A    between atoms: _44  and  _46
REMARK   17  A    between atoms: _46  and  _47
REMARK   18  A    between atoms: _46  and  _49
REMARK   19  A    between atoms: _49  and  _50
REMARK   20  A    between atoms: _50  and  _51
REMARK   21  A    between atoms: _56  and  _58
REMARK   22  A    between atoms: _58  and  _59
REMARK   23  A    between atoms: _58  and  _61
REMARK   24  A    between atoms: _61  and  _62
REMARK   25  A    between atoms: _65  and  _67
REMARK   26  A    between atoms: _67  and  _68
REMARK   27  A    between atoms: _67  and  _70
REMARK   28  A    between atoms: _70  and  _71
REMARK   29  A    between atoms: _81  and  _83
REMARK   30  A    between atoms: _83  and  _84
REMARK   31  A    between atoms: _83  and  _86
REMARK   32  A    between atoms: _89  and  _91
REMARK   33  A    between atoms: _91  and  _92
REMARK   34  A    between atoms: _91  and  _94
REMARK   35  A    between atoms: _94  and  _95
REMARK   36  A    between atoms: _98  and  _100
REMARK   37  A    between atoms: _100  and  _101
REMARK   38  A    between atoms: _100  and  _103
REMARK   39  A    between atoms: _103  and  _104
REMARK   40  A    between atoms: _106  and  _108
REMARK   41  A    between atoms: _108  and  _109
REMARK   42  A    between atoms: _108  and  _111
REMARK   43  A    between atoms: _111  and  _112
REMARK   44  A    between atoms: _116  and  _117
REMARK   45  A    between atoms: _123  and  _124
REMARK   46  A    between atoms: _130  and  _131
REMARK   47  A    between atoms: _136  and  _138
REMARK   48  A    between atoms: _138  and  _139
REMARK   49  A    between atoms: _141  and  _143
REMARK   50  A    between atoms: _143  and  _144
REMARK   51  A    between atoms: _143  and  _146
REMARK   52  A    between atoms: _146  and  _147
REMARK   53  A    between atoms: _150  and  _152
REMARK   54  A    between atoms: _152  and  _153
REMARK   55  A    between atoms: _152  and  _155
REMARK   56  A    between atoms: _159  and  _160
REMARK   57  A    between atoms: _165  and  _167
REMARK   58  A    between atoms: _167  and  _168
REMARK   59  A    between atoms: _167  and  _170
REMARK   60  A    between atoms: _172  and  _174
REMARK   61  A    between atoms: _174  and  _175
REMARK   62  A    between atoms: _174  and  _177
REMARK   63  A    between atoms: _177  and  _178
REMARK   64  A    between atoms: _178  and  _179
REMARK   65  A    between atoms: _183  and  _184
REMARK   66  A    between atoms: _190  and  _191
REMARK   67  A    between atoms: _196  and  _198
REMARK   68  A    between atoms: _198  and  _199
REMARK   69  A    between atoms: _198  and  _201
REMARK   70  A    between atoms: _201  and  _202
REMARK   71  A    between atoms: _204  and  _206
REMARK   72  A    between atoms: _206  and  _207
REMARK   73  A    between atoms: _206  and  _209
REMARK   74  A    between atoms: _209  and  _210
REMARK   75  A    between atoms: _213  and  _215
REMARK   76  A    between atoms: _215  and  _216
REMARK   77  A    between atoms: _215  and  _218
REMARK   78  A    between atoms: _220  and  _222
REMARK   79  A    between atoms: _222  and  _223
REMARK   80  A    between atoms: _222  and  _225
REMARK   81  A    between atoms: _225  and  _226
REMARK   82  A    between atoms: _229  and  _231
REMARK   83  A    between atoms: _231  and  _232
REMARK   84  A    between atoms: _231  and  _234
REMARK   85  A    between atoms: _234  and  _235
REMARK   86  A    between atoms: _238  and  _240
REMARK   87  A    between atoms: _240  and  _241
REMARK   88  A    between atoms: _240  and  _243
REMARK   89  A    between atoms: _243  and  _244
REMARK                            x       y       z     vdW  Elec       q    Type
REMARK                         _______ _______ _______ _____ _____    ______ ____
ROOT
ATOM      1  O   HOH     1      88.892  96.604 -48.872  0.00  0.00    +0.000 OA
ENDROOT
TORSDOF 0
REMARK  Name = ../refined-set-2016/5aba/5aba_pocket.pdb
REMARK  89 active torsions:
REMARK  status: ('A' for Active; 'I' for Inactive)
REMARK    1  A    between atoms: _1  and  _3
REMARK    2  A    between atoms: _3  and  _4
REMARK    3  A    between atoms: _3  and  _6
REMARK    4  A    between atoms: _6  and  _7
REMARK    5  A    between atoms: _12  and  _13
REMARK    6  A    between atoms: _15  and  _17
REMARK    7  A    between atoms: _17  and  _18
REMARK    8  A    between atoms: _17  and  _20
REMARK    9  A    between atoms: _20  and  _21
REMARK   10  A    between atoms: _27  and  _29
REMARK   11  A    between atoms: _29  and  _30
REMARK   12  A    between atoms: _29  and  _32
REMARK   13  A    between atoms: _32  and  _33
REMARK   14  A    between atoms: _33  and  _34
REMARK   15  A    between atoms: _34  and  _35
REMARK   16  A    between atoms: _44  and  _46
REMARK   17  A    between atoms: _46  and  _47
REMARK   18  A    between atoms: _46  and  _49
REMARK   19  A    between atoms: _49  and  _50
REMARK   20  A    between atoms: _50  and  _51
REMARK   21  A    between atoms: _56  and  _58
REMARK   22  A    between atoms: _58  and  _59
REMARK   23  A    between atoms: _58  and  _61
REMARK   24  A    between atoms: _61  and  _62
REMARK   25  A    between atoms: _65  and  _67
REMARK   26  A    between atoms: _67  and  _68
REMARK   27  A    between atoms: _67  and  _70
REMARK   28  A    between atoms: _70  and  _71
REMARK   29  A    between atoms: _81  and  _83
REMARK   30  A    between atoms: _83  and  _84
REMARK   31  A    between atoms: _83  and  _86
REMARK   32  A    between atoms: _89  and  _91
REMARK   33  A    between atoms: _91  and  _92
REMARK   34  A    between atoms: _91  and  _94
REMARK   35  A    between atoms: _94  and  _95
REMARK   36  A    between atoms: _98  and  _100
REMARK   37  A    between atoms: _100  and  _101
REMARK   38  A    between atoms: _100  and  _103
REMARK   39  A    between atoms: _103  and  _104
REMARK   40  A    between atoms: _106  and  _108
REMARK   41  A    between atoms: _108  and  _109
REMARK   42  A    between atoms: _108  and  _111
REMARK   43  A    between atoms: _111  and  _112
REMARK   44  A    between atoms: _116  and  _117
REMARK   45  A    between atoms: _123  and  _124
REMARK   46  A    between atoms: _130  and  _131
REMARK   47  A    between atoms: _136  and  _138
REMARK   48  A    between atoms: _138  and  _139
REMARK   49  A    between atoms: _141  and  _143
REMARK   50  A    between atoms: _143  and  _144
REMARK   51  A    between atoms: _143  and  _146
REMARK   52  A    between atoms: _146  and  _147
REMARK   53  A    between atoms: _150  and  _152
REMARK   54  A    between atoms: _152  and  _153
REMARK   55  A    between atoms: _152  and  _155
REMARK   56  A    between atoms: _159  and  _160
REMARK   57  A    between atoms: _165  and  _167
REMARK   58  A    between atoms: _167  and  _168
REMARK   59  A    between atoms: _167  and  _170
REMARK   60  A    between atoms: _172  and  _174
REMARK   61  A    between atoms: _174  and  _175
REMARK   62  A    between atoms: _174  and  _177
REMARK   63  A    between atoms: _177  and  _178
REMARK   64  A    between atoms: _178  and  _179
REMARK   65  A    between atoms: _183  and  _184
REMARK   66  A    between atoms: _190  and  _191
REMARK   67  A    between atoms: _196  and  _198
REMARK   68  A    between atoms: _198  and  _199
REMARK   69  A    between atoms: _198  and  _201
REMARK   70  A    between atoms: _201  and  _202
REMARK   71  A    between atoms: _204  and  _206
REMARK   72  A    between atoms: _206  and  _207
REMARK   73  A    between atoms: _206  and  _209
REMARK   74  A    between atoms: _209  and  _210
REMARK   75  A    between atoms: _213  and  _215
REMARK   76  A    between atoms: _215  and  _216
REMARK   77  A    between atoms: _215  and  _218
REMARK   78  A    between atoms: _220  and  _222
REMARK   79  A    between atoms: _222  and  _223
REMARK   80  A    between atoms: _222  and  _225
REMARK   81  A    between atoms: _225  and  _226
REMARK   82  A    between atoms: _229  and  _231
REMARK   83  A    between atoms: _231  and  _232
REMARK   84  A    between atoms: _231  and  _234
REMARK   85  A    between atoms: _234  and  _235
REMARK   86  A    between atoms: _238  and  _240
REMARK   87  A    between atoms: _240  and  _241
REMARK   88  A    between atoms: _240  and  _243
REMARK   89  A    between atoms: _243  and  _244
REMARK                            x       y       z     vdW  Elec       q    Type
REMARK                         _______ _______ _______ _____ _____    ______ ____
ROOT
ATOM      1  O   HOH     1      91.149  90.870 -49.370  0.00  0.00    +0.000 OA
ENDROOT
TORSDOF 0
REMARK  Name = ../refined-set-2016/5aba/5aba_pocket.pdb
REMARK  89 active torsions:
REMARK  status: ('A' for Active; 'I' for Inactive)
REMARK    1  A    between atoms: _1  and  _3
REMARK    2  A    between atoms: _3  and  _4
REMARK    3  A    between atoms: _3  and  _6
REMARK    4  A    between atoms: _6  and  _7
REMARK    5  A    between atoms: _12  and  _13
REMARK    6  A    between atoms: _15  and  _17
REMARK    7  A    between atoms: _17  and  _18
REMARK    8  A    between atoms: _17  and  _20
REMARK    9  A    between atoms: _20  and  _21
REMARK   10  A    between atoms: _27  and  _29
REMARK   11  A    between atoms: _29  and  _30
REMARK   12  A    between atoms: _29  and  _32
REMARK   13  A    between atoms: _32  and  _33
REMARK   14  A    between atoms: _33  and  _34
REMARK   15  A    between atoms: _34  and  _35
REMARK   16  A    between atoms: _44  and  _46
REMARK   17  A    between atoms: _46  and  _47
REMARK   18  A    between atoms: _46  and  _49
REMARK   19  A    between atoms: _49  and  _50
REMARK   20  A    between atoms: _50  and  _51
REMARK   21  A    between atoms: _56  and  _58
REMARK   22  A    between atoms: _58  and  _59
REMARK   23  A    between atoms: _58  and  _61
REMARK   24  A    between atoms: _61  and  _62
REMARK   25  A    between atoms: _65  and  _67
REMARK   26  A    between atoms: _67  and  _68
REMARK   27  A    between atoms: _67  and  _70
REMARK   28  A    between atoms: _70  and  _71
REMARK   29  A    between atoms: _81  and  _83
REMARK   30  A    between atoms: _83  and  _84
REMARK   31  A    between atoms: _83  and  _86
REMARK   32  A    between atoms: _89  and  _91
REMARK   33  A    between atoms: _91  and  _92
REMARK   34  A    between atoms: _91  and  _94
REMARK   35  A    between atoms: _94  and  _95
REMARK   36  A    between atoms: _98  and  _100
REMARK   37  A    between atoms: _100  and  _101
REMARK   38  A    between atoms: _100  and  _103
REMARK   39  A    between atoms: _103  and  _104
REMARK   40  A    between atoms: _106  and  _108
REMARK   41  A    between atoms: _108  and  _109
REMARK   42  A    between atoms: _108  and  _111
REMARK   43  A    between atoms: _111  and  _112
REMARK   44  A    between atoms: _116  and  _117
REMARK   45  A    between atoms: _123  and  _124
REMARK   46  A    between atoms: _130  and  _131
REMARK   47  A    between atoms: _136  and  _138
REMARK   48  A    between atoms: _138  and  _139
REMARK   49  A    between atoms: _141  and  _143
REMARK   50  A    between atoms: _143  and  _144
REMARK   51  A    between atoms: _143  and  _146
REMARK   52  A    between atoms: _146  and  _147
REMARK   53  A    between atoms: _150  and  _152
REMARK   54  A    between atoms: _152  and  _153
REMARK   55  A    between atoms: _152  and  _155
REMARK   56  A    between atoms: _159  and  _160
REMARK   57  A    between atoms: _165  and  _167
REMARK   58  A    between atoms: _167  and  _168
REMARK   59  A    between atoms: _167  and  _170
REMARK   60  A    between atoms: _172  and  _174
REMARK   61  A    between atoms: _174  and  _175
REMARK   62  A    between atoms: _174  and  _177
REMARK   63  A    between atoms: _177  and  _178
REMARK   64  A    between atoms: _178  and  _179
REMARK   65  A    between atoms: _183  and  _184
REMARK   66  A    between atoms: _190  and  _191
REMARK   67  A    between atoms: _196  and  _198
REMARK   68  A    between atoms: _198  and  _199
REMARK   69  A    between atoms: _198  and  _201
REMARK   70  A    between atoms: _201  and  _202
REMARK   71  A    between atoms: _204  and  _206
REMARK   72  A    between atoms: _206  and  _207
REMARK   73  A    between atoms: _206  and  _209
REMARK   74  A    between atoms: _209  and  _210
REMARK   75  A    between atoms: _213  and  _215
REMARK   76  A    between atoms: _215  and  _216
REMARK   77  A    between atoms: _215  and  _218
REMARK   78  A    between atoms: _220  and  _222
REMARK   79  A    between atoms: _222  and  _223
REMARK   80  A    between atoms: _222  and  _225
REMARK   81  A    between atoms: _225  and  _226
REMARK   82  A    between atoms: _229  and  _231
REMARK   83  A    between atoms: _231  and  _232
REMARK   84  A    between atoms: _231  and  _234
REMARK   85  A    between atoms: _234  and  _235
REMARK   86  A    between atoms: _238  and  _240
REMARK   87  A    between atoms: _240  and  _241
REMARK   88  A    between atoms: _240  and  _243
REMARK   89  A    between atoms: _243  and  _244
REMARK                            x       y       z     vdW  Elec       q    Type
REMARK                         _______ _______ _______ _____ _____    ______ ____
ROOT
ATOM      1  O   HOH     1      92.234  88.273 -47.930  0.00  0.00    +0.000 OA
ENDROOT
TORSDOF 0
REMARK  Name = ../refined-set-2016/5aba/5aba_pocket.pdb
REMARK  89 active torsions:
REMARK  status: ('A' for Active; 'I' for Inactive)
REMARK    1  A    between atoms: _1  and  _3
REMARK    2  A    between atoms: _3  and  _4
REMARK    3  A    between atoms: _3  and  _6
REMARK    4  A    between atoms: _6  and  _7
REMARK    5  A    between atoms: _12  and  _13
REMARK    6  A    between atoms: _15  and  _17
REMARK    7  A    between atoms: _17  and  _18
REMARK    8  A    between atoms: _17  and  _20
REMARK    9  A    between atoms: _20  and  _21
REMARK   10  A    between atoms: _27  and  _29
REMARK   11  A    between atoms: _29  and  _30
REMARK   12  A    between atoms: _29  and  _32
REMARK   13  A    between atoms: _32  and  _33
REMARK   14  A    between atoms: _33  and  _34
REMARK   15  A    between atoms: _34  and  _35
REMARK   16  A    between atoms: _44  and  _46
REMARK   17  A    between atoms: _46  and  _47
REMARK   18  A    between atoms: _46  and  _49
REMARK   19  A    between atoms: _49  and  _50
REMARK   20  A    between atoms: _50  and  _51
REMARK   21  A    between atoms: _56  and  _58
REMARK   22  A    between atoms: _58  and  _59
REMARK   23  A    between atoms: _58  and  _61
REMARK   24  A    between atoms: _61  and  _62
REMARK   25  A    between atoms: _65  and  _67
REMARK   26  A    between atoms: _67  and  _68
REMARK   27  A    between atoms: _67  and  _70
REMARK   28  A    between atoms: _70  and  _71
REMARK   29  A    between atoms: _81  and  _83
REMARK   30  A    between atoms: _83  and  _84
REMARK   31  A    between atoms: _83  and  _86
REMARK   32  A    between atoms: _89  and  _91
REMARK   33  A    between atoms: _91  and  _92
REMARK   34  A    between atoms: _91  and  _94
REMARK   35  A    between atoms: _94  and  _95
REMARK   36  A    between atoms: _98  and  _100
REMARK   37  A    between atoms: _100  and  _101
REMARK   38  A    between atoms: _100  and  _103
REMARK   39  A    between atoms: _103  and  _104
REMARK   40  A    between atoms: _106  and  _108
REMARK   41  A    between atoms: _108  and  _109
REMARK   42  A    between atoms: _108  and  _111
REMARK   43  A    between atoms: _111  and  _112
REMARK   44  A    between atoms: _116  and  _117
REMARK   45  A    between atoms: _123  and  _124
REMARK   46  A    between atoms: _130  and  _131
REMARK   47  A    between atoms: _136  and  _138
REMARK   48  A    between atoms: _138  and  _139
REMARK   49  A    between atoms: _141  and  _143
REMARK   50  A    between atoms: _143  and  _144
REMARK   51  A    between atoms: _143  and  _146
REMARK   52  A    between atoms: _146  and  _147
REMARK   53  A    between atoms: _150  and  _152
REMARK   54  A    between atoms: _152  and  _153
REMARK   55  A    between atoms: _152  and  _155
REMARK   56  A    between atoms: _159  and  _160
REMARK   57  A    between atoms: _165  and  _167
REMARK   58  A    between atoms: _167  and  _168
REMARK   59  A    between atoms: _167  and  _170
REMARK   60  A    between atoms: _172  and  _174
REMARK   61  A    between atoms: _174  and  _175
REMARK   62  A    between atoms: _174  and  _177
REMARK   63  A    between atoms: _177  and  _178
REMARK   64  A    between atoms: _178  and  _179
REMARK   65  A    between atoms: _183  and  _184
REMARK   66  A    between atoms: _190  and  _191
REMARK   67  A    between atoms: _196  and  _198
REMARK   68  A    between atoms: _198  and  _199
REMARK   69  A    between atoms: _198  and  _201
REMARK   70  A    between atoms: _201  and  _202
REMARK   71  A    between atoms: _204  and  _206
REMARK   72  A    between atoms: _206  and  _207
REMARK   73  A    between atoms: _206  and  _209
REMARK   74  A    between atoms: _209  and  _210
REMARK   75  A    between atoms: _213  and  _215
REMARK   76  A    between atoms: _215  and  _216
REMARK   77  A    between atoms: _215  and  _218
REMARK   78  A    between atoms: _220  and  _222
REMARK   79  A    between atoms: _222  and  _223
REMARK   80  A    between atoms: _222  and  _225
REMARK   81  A    between atoms: _225  and  _226
REMARK   82  A    between atoms: _229  and  _231
REMARK   83  A    between atoms: _231  and  _232
REMARK   84  A    between atoms: _231  and  _234
REMARK   85  A    between atoms: _234  and  _235
REMARK   86  A    between atoms: _238  and  _240
REMARK   87  A    between atoms: _240  and  _241
REMARK   88  A    between atoms: _240  and  _243
REMARK   89  A    between atoms: _243  and  _244
REMARK                            x       y       z     vdW  Elec       q    Type
REMARK                         _______ _______ _______ _____ _____    ______ ____
ROOT
ATOM      1  O   HOH     1      86.368  97.558 -44.900  0.00  0.00    +0.000 OA
ENDROOT
TORSDOF 0
REMARK  Name = ../refined-set-2016/5aba/5aba_pocket.pdb
REMARK  89 active torsions:
REMARK  status: ('A' for Active; 'I' for Inactive)
REMARK    1  A    between atoms: _1  and  _3
REMARK    2  A    between atoms: _3  and  _4
REMARK    3  A    between atoms: _3  and  _6
REMARK    4  A    between atoms: _6  and  _7
REMARK    5  A    between atoms: _12  and  _13
REMARK    6  A    between atoms: _15  and  _17
REMARK    7  A    between atoms: _17  and  _18
REMARK    8  A    between atoms: _17  and  _20
REMARK    9  A    between atoms: _20  and  _21
REMARK   10  A    between atoms: _27  and  _29
REMARK   11  A    between atoms: _29  and  _30
REMARK   12  A    between atoms: _29  and  _32
REMARK   13  A    between atoms: _32  and  _33
REMARK   14  A    between atoms: _33  and  _34
REMARK   15  A    between atoms: _34  and  _35
REMARK   16  A    between atoms: _44  and  _46
REMARK   17  A    between atoms: _46  and  _47
REMARK   18  A    between atoms: _46  and  _49
REMARK   19  A    between atoms: _49  and  _50
REMARK   20  A    between atoms: _50  and  _51
REMARK   21  A    between atoms: _56  and  _58
REMARK   22  A    between atoms: _58  and  _59
REMARK   23  A    between atoms: _58  and  _61
REMARK   24  A    between atoms: _61  and  _62
REMARK   25  A    between atoms: _65  and  _67
REMARK   26  A    between atoms: _67  and  _68
REMARK   27  A    between atoms: _67  and  _70
REMARK   28  A    between atoms: _70  and  _71
REMARK   29  A    between atoms: _81  and  _83
REMARK   30  A    between atoms: _83  and  _84
REMARK   31  A    between atoms: _83  and  _86
REMARK   32  A    between atoms: _89  and  _91
REMARK   33  A    between atoms: _91  and  _92
REMARK   34  A    between atoms: _91  and  _94
REMARK   35  A    between atoms: _94  and  _95
REMARK   36  A    between atoms: _98  and  _100
REMARK   37  A    between atoms: _100  and  _101
REMARK   38  A    between atoms: _100  and  _103
REMARK   39  A    between atoms: _103  and  _104
REMARK   40  A    between atoms: _106  and  _108
REMARK   41  A    between atoms: _108  and  _109
REMARK   42  A    between atoms: _108  and  _111
REMARK   43  A    between atoms: _111  and  _112
REMARK   44  A    between atoms: _116  and  _117
REMARK   45  A    between atoms: _123  and  _124
REMARK   46  A    between atoms: _130  and  _131
REMARK   47  A    between atoms: _136  and  _138
REMARK   48  A    between atoms: _138  and  _139
REMARK   49  A    between atoms: _141  and  _143
REMARK   50  A    between atoms: _143  and  _144
REMARK   51  A    between atoms: _143  and  _146
REMARK   52  A    between atoms: _146  and  _147
REMARK   53  A    between atoms: _150  and  _152
REMARK   54  A    between atoms: _152  and  _153
REMARK   55  A    between atoms: _152  and  _155
REMARK   56  A    between atoms: _159  and  _160
REMARK   57  A    between atoms: _165  and  _167
REMARK   58  A    between atoms: _167  and  _168
REMARK   59  A    between atoms: _167  and  _170
REMARK   60  A    between atoms: _172  and  _174
REMARK   61  A    between atoms: _174  and  _175
REMARK   62  A    between atoms: _174  and  _177
REMARK   63  A    between atoms: _177  and  _178
REMARK   64  A    between atoms: _178  and  _179
REMARK   65  A    between atoms: _183  and  _184
REMARK   66  A    between atoms: _190  and  _191
REMARK   67  A    between atoms: _196  and  _198
REMARK   68  A    between atoms: _198  and  _199
REMARK   69  A    between atoms: _198  and  _201
REMARK   70  A    between atoms: _201  and  _202
REMARK   71  A    between atoms: _204  and  _206
REMARK   72  A    between atoms: _206  and  _207
REMARK   73  A    between atoms: _206  and  _209
REMARK   74  A    between atoms: _209  and  _210
REMARK   75  A    between atoms: _213  and  _215
REMARK   76  A    between atoms: _215  and  _216
REMARK   77  A    between atoms: _215  and  _218
REMARK   78  A    between atoms: _220  and  _222
REMARK   79  A    between atoms: _222  and  _223
REMARK   80  A    between atoms: _222  and  _225
REMARK   81  A    between atoms: _225  and  _226
REMARK   82  A    between atoms: _229  and  _231
REMARK   83  A    between atoms: _231  and  _232
REMARK   84  A    between atoms: _231  and  _234
REMARK   85  A    between atoms: _234  and  _235
REMARK   86  A    between atoms: _238  and  _240
REMARK   87  A    between atoms: _240  and  _241
REMARK   88  A    between atoms: _240  and  _243
REMARK   89  A    between atoms: _243  and  _244
REMARK                            x       y       z     vdW  Elec       q    Type
REMARK                         _______ _______ _______ _____ _____    ______ ____
ROOT
ATOM      1  O   HOH     1      87.132  86.351 -46.934  0.00  0.00    +0.000 OA
ENDROOT
TORSDOF 0
REMARK  Name = ../refined-set-2016/5aba/5aba_pocket.pdb
REMARK  89 active torsions:
REMARK  status: ('A' for Active; 'I' for Inactive)
REMARK    1  A    between atoms: _1  and  _3
REMARK    2  A    between atoms: _3  and  _4
REMARK    3  A    between atoms: _3  and  _6
REMARK    4  A    between atoms: _6  and  _7
REMARK    5  A    between atoms: _12  and  _13
REMARK    6  A    between atoms: _15  and  _17
REMARK    7  A    between atoms: _17  and  _18
REMARK    8  A    between atoms: _17  and  _20
REMARK    9  A    between atoms: _20  and  _21
REMARK   10  A    between atoms: _27  and  _29
REMARK   11  A    between atoms: _29  and  _30
REMARK   12  A    between atoms: _29  and  _32
REMARK   13  A    between atoms: _32  and  _33
REMARK   14  A    between atoms: _33  and  _34
REMARK   15  A    between atoms: _34  and  _35
REMARK   16  A    between atoms: _44  and  _46
REMARK   17  A    between atoms: _46  and  _47
REMARK   18  A    between atoms: _46  and  _49
REMARK   19  A    between atoms: _49  and  _50
REMARK   20  A    between atoms: _50  and  _51
REMARK   21  A    between atoms: _56  and  _58
REMARK   22  A    between atoms: _58  and  _59
REMARK   23  A    between atoms: _58  and  _61
REMARK   24  A    between atoms: _61  and  _62
REMARK   25  A    between atoms: _65  and  _67
REMARK   26  A    between atoms: _67  and  _68
REMARK   27  A    between atoms: _67  and  _70
REMARK   28  A    between atoms: _70  and  _71
REMARK   29  A    between atoms: _81  and  _83
REMARK   30  A    between atoms: _83  and  _84
REMARK   31  A    between atoms: _83  and  _86
REMARK   32  A    between atoms: _89  and  _91
REMARK   33  A    between atoms: _91  and  _92
REMARK   34  A    between atoms: _91  and  _94
REMARK   35  A    between atoms: _94  and  _95
REMARK   36  A    between atoms: _98  and  _100
REMARK   37  A    between atoms: _100  and  _101
REMARK   38  A    between atoms: _100  and  _103
REMARK   39  A    between atoms: _103  and  _104
REMARK   40  A    between atoms: _106  and  _108
REMARK   41  A    between atoms: _108  and  _109
REMARK   42  A    between atoms: _108  and  _111
REMARK   43  A    between atoms: _111  and  _112
REMARK   44  A    between atoms: _116  and  _117
REMARK   45  A    between atoms: _123  and  _124
REMARK   46  A    between atoms: _130  and  _131
REMARK   47  A    between atoms: _136  and  _138
REMARK   48  A    between atoms: _138  and  _139
REMARK   49  A    between atoms: _141  and  _143
REMARK   50  A    between atoms: _143  and  _144
REMARK   51  A    between atoms: _143  and  _146
REMARK   52  A    between atoms: _146  and  _147
REMARK   53  A    between atoms: _150  and  _152
REMARK   54  A    between atoms: _152  and  _153
REMARK   55  A    between atoms: _152  and  _155
REMARK   56  A    between atoms: _159  and  _160
REMARK   57  A    between atoms: _165  and  _167
REMARK   58  A    between atoms: _167  and  _168
REMARK   59  A    between atoms: _167  and  _170
REMARK   60  A    between atoms: _172  and  _174
REMARK   61  A    between atoms: _174  and  _175
REMARK   62  A    between atoms: _174  and  _177
REMARK   63  A    between atoms: _177  and  _178
REMARK   64  A    between atoms: _178  and  _179
REMARK   65  A    between atoms: _183  and  _184
REMARK   66  A    between atoms: _190  and  _191
REMARK   67  A    between atoms: _196  and  _198
REMARK   68  A    between atoms: _198  and  _199
REMARK   69  A    between atoms: _198  and  _201
REMARK   70  A    between atoms: _201  and  _202
REMARK   71  A    between atoms: _204  and  _206
REMARK   72  A    between atoms: _206  and  _207
REMARK   73  A    between atoms: _206  and  _209
REMARK   74  A    between atoms: _209  and  _210
REMARK   75  A    between atoms: _213  and  _215
REMARK   76  A    between atoms: _215  and  _216
REMARK   77  A    between atoms: _215  and  _218
REMARK   78  A    between atoms: _220  and  _222
REMARK   79  A    between atoms: _222  and  _223
REMARK   80  A    between atoms: _222  and  _225
REMARK   81  A    between atoms: _225  and  _226
REMARK   82  A    between atoms: _229  and  _231
REMARK   83  A    between atoms: _231  and  _232
REMARK   84  A    between atoms: _231  and  _234
REMARK   85  A    between atoms: _234  and  _235
REMARK   86  A    between atoms: _238  and  _240
REMARK   87  A    between atoms: _240  and  _241
REMARK   88  A    between atoms: _240  and  _243
REMARK   89  A    between atoms: _243  and  _244
REMARK                            x       y       z     vdW  Elec       q    Type
REMARK                         _______ _______ _______ _____ _____    ______ ____
ROOT
ATOM      1  O   HOH     1      90.232  87.214 -40.739  0.00  0.00    +0.000 OA
ENDROOT
TORSDOF 0
REMARK  Name = ../refined-set-2016/5aba/5aba_pocket.pdb
REMARK  89 active torsions:
REMARK  status: ('A' for Active; 'I' for Inactive)
REMARK    1  A    between atoms: _1  and  _3
REMARK    2  A    between atoms: _3  and  _4
REMARK    3  A    between atoms: _3  and  _6
REMARK    4  A    between atoms: _6  and  _7
REMARK    5  A    between atoms: _12  and  _13
REMARK    6  A    between atoms: _15  and  _17
REMARK    7  A    between atoms: _17  and  _18
REMARK    8  A    between atoms: _17  and  _20
REMARK    9  A    between atoms: _20  and  _21
REMARK   10  A    between atoms: _27  and  _29
REMARK   11  A    between atoms: _29  and  _30
REMARK   12  A    between atoms: _29  and  _32
REMARK   13  A    between atoms: _32  and  _33
REMARK   14  A    between atoms: _33  and  _34
REMARK   15  A    between atoms: _34  and  _35
REMARK   16  A    between atoms: _44  and  _46
REMARK   17  A    between atoms: _46  and  _47
REMARK   18  A    between atoms: _46  and  _49
REMARK   19  A    between atoms: _49  and  _50
REMARK   20  A    between atoms: _50  and  _51
REMARK   21  A    between atoms: _56  and  _58
REMARK   22  A    between atoms: _58  and  _59
REMARK   23  A    between atoms: _58  and  _61
REMARK   24  A    between atoms: _61  and  _62
REMARK   25  A    between atoms: _65  and  _67
REMARK   26  A    between atoms: _67  and  _68
REMARK   27  A    between atoms: _67  and  _70
REMARK   28  A    between atoms: _70  and  _71
REMARK   29  A    between atoms: _81  and  _83
REMARK   30  A    between atoms: _83  and  _84
REMARK   31  A    between atoms: _83  and  _86
REMARK   32  A    between atoms: _89  and  _91
REMARK   33  A    between atoms: _91  and  _92
REMARK   34  A    between atoms: _91  and  _94
REMARK   35  A    between atoms: _94  and  _95
REMARK   36  A    between atoms: _98  and  _100
REMARK   37  A    between atoms: _100  and  _101
REMARK   38  A    between atoms: _100  and  _103
REMARK   39  A    between atoms: _103  and  _104
REMARK   40  A    between atoms: _106  and  _108
REMARK   41  A    between atoms: _108  and  _109
REMARK   42  A    between atoms: _108  and  _111
REMARK   43  A    between atoms: _111  and  _112
REMARK   44  A    between atoms: _116  and  _117
REMARK   45  A    between atoms: _123  and  _124
REMARK   46  A    between atoms: _130  and  _131
REMARK   47  A    between atoms: _136  and  _138
REMARK   48  A    between atoms: _138  and  _139
REMARK   49  A    between atoms: _141  and  _143
REMARK   50  A    between atoms: _143  and  _144
REMARK   51  A    between atoms: _143  and  _146
REMARK   52  A    between atoms: _146  and  _147
REMARK   53  A    between atoms: _150  and  _152
REMARK   54  A    between atoms: _152  and  _153
REMARK   55  A    between atoms: _152  and  _155
REMARK   56  A    between atoms: _159  and  _160
REMARK   57  A    between atoms: _165  and  _167
REMARK   58  A    between atoms: _167  and  _168
REMARK   59  A    between atoms: _167  and  _170
REMARK   60  A    between atoms: _172  and  _174
REMARK   61  A    between atoms: _174  and  _175
REMARK   62  A    between atoms: _174  and  _177
REMARK   63  A    between atoms: _177  and  _178
REMARK   64  A    between atoms: _178  and  _179
REMARK   65  A    between atoms: _183  and  _184
REMARK   66  A    between atoms: _190  and  _191
REMARK   67  A    between atoms: _196  and  _198
REMARK   68  A    between atoms: _198  and  _199
REMARK   69  A    between atoms: _198  and  _201
REMARK   70  A    between atoms: _201  and  _202
REMARK   71  A    between atoms: _204  and  _206
REMARK   72  A    between atoms: _206  and  _207
REMARK   73  A    between atoms: _206  and  _209
REMARK   74  A    between atoms: _209  and  _210
REMARK   75  A    between atoms: _213  and  _215
REMARK   76  A    between atoms: _215  and  _216
REMARK   77  A    between atoms: _215  and  _218
REMARK   78  A    between atoms: _220  and  _222
REMARK   79  A    between atoms: _222  and  _223
REMARK   80  A    between atoms: _222  and  _225
REMARK   81  A    between atoms: _225  and  _226
REMARK   82  A    between atoms: _229  and  _231
REMARK   83  A    between atoms: _231  and  _232
REMARK   84  A    between atoms: _231  and  _234
REMARK   85  A    between atoms: _234  and  _235
REMARK   86  A    between atoms: _238  and  _240
REMARK   87  A    between atoms: _240  and  _241
REMARK   88  A    between atoms: _240  and  _243
REMARK   89  A    between atoms: _243  and  _244
REMARK                            x       y       z     vdW  Elec       q    Type
REMARK                         _______ _______ _______ _____ _____    ______ ____
ROOT
ATOM      1  O   HOH     1      85.060  90.159 -40.461  0.00  0.00    +0.000 OA
ENDROOT
TORSDOF 0
REMARK  Name = ../refined-set-2016/5aba/5aba_pocket.pdb
REMARK  89 active torsions:
REMARK  status: ('A' for Active; 'I' for Inactive)
REMARK    1  A    between atoms: _1  and  _3
REMARK    2  A    between atoms: _3  and  _4
REMARK    3  A    between atoms: _3  and  _6
REMARK    4  A    between atoms: _6  and  _7
REMARK    5  A    between atoms: _12  and  _13
REMARK    6  A    between atoms: _15  and  _17
REMARK    7  A    between atoms: _17  and  _18
REMARK    8  A    between atoms: _17  and  _20
REMARK    9  A    between atoms: _20  and  _21
REMARK   10  A    between atoms: _27  and  _29
REMARK   11  A    between atoms: _29  and  _30
REMARK   12  A    between atoms: _29  and  _32
REMARK   13  A    between atoms: _32  and  _33
REMARK   14  A    between atoms: _33  and  _34
REMARK   15  A    between atoms: _34  and  _35
REMARK   16  A    between atoms: _44  and  _46
REMARK   17  A    between atoms: _46  and  _47
REMARK   18  A    between atoms: _46  and  _49
REMARK   19  A    between atoms: _49  and  _50
REMARK   20  A    between atoms: _50  and  _51
REMARK   21  A    between atoms: _56  and  _58
REMARK   22  A    between atoms: _58  and  _59
REMARK   23  A    between atoms: _58  and  _61
REMARK   24  A    between atoms: _61  and  _62
REMARK   25  A    between atoms: _65  and  _67
REMARK   26  A    between atoms: _67  and  _68
REMARK   27  A    between atoms: _67  and  _70
REMARK   28  A    between atoms: _70  and  _71
REMARK   29  A    between atoms: _81  and  _83
REMARK   30  A    between atoms: _83  and  _84
REMARK   31  A    between atoms: _83  and  _86
REMARK   32  A    between atoms: _89  and  _91
REMARK   33  A    between atoms: _91  and  _92
REMARK   34  A    between atoms: _91  and  _94
REMARK   35  A    between atoms: _94  and  _95
REMARK   36  A    between atoms: _98  and  _100
REMARK   37  A    between atoms: _100  and  _101
REMARK   38  A    between atoms: _100  and  _103
REMARK   39  A    between atoms: _103  and  _104
REMARK   40  A    between atoms: _106  and  _108
REMARK   41  A    between atoms: _108  and  _109
REMARK   42  A    between atoms: _108  and  _111
REMARK   43  A    between atoms: _111  and  _112
REMARK   44  A    between atoms: _116  and  _117
REMARK   45  A    between atoms: _123  and  _124
REMARK   46  A    between atoms: _130  and  _131
REMARK   47  A    between atoms: _136  and  _138
REMARK   48  A    between atoms: _138  and  _139
REMARK   49  A    between atoms: _141  and  _143
REMARK   50  A    between atoms: _143  and  _144
REMARK   51  A    between atoms: _143  and  _146
REMARK   52  A    between atoms: _146  and  _147
REMARK   53  A    between atoms: _150  and  _152
REMARK   54  A    between atoms: _152  and  _153
REMARK   55  A    between atoms: _152  and  _155
REMARK   56  A    between atoms: _159  and  _160
REMARK   57  A    between atoms: _165  and  _167
REMARK   58  A    between atoms: _167  and  _168
REMARK   59  A    between atoms: _167  and  _170
REMARK   60  A    between atoms: _172  and  _174
REMARK   61  A    between atoms: _174  and  _175
REMARK   62  A    between atoms: _174  and  _177
REMARK   63  A    between atoms: _177  and  _178
REMARK   64  A    between atoms: _178  and  _179
REMARK   65  A    between atoms: _183  and  _184
REMARK   66  A    between atoms: _190  and  _191
REMARK   67  A    between atoms: _196  and  _198
REMARK   68  A    between atoms: _198  and  _199
REMARK   69  A    between atoms: _198  and  _201
REMARK   70  A    between atoms: _201  and  _202
REMARK   71  A    between atoms: _204  and  _206
REMARK   72  A    between atoms: _206  and  _207
REMARK   73  A    between atoms: _206  and  _209
REMARK   74  A    between atoms: _209  and  _210
REMARK   75  A    between atoms: _213  and  _215
REMARK   76  A    between atoms: _215  and  _216
REMARK   77  A    between atoms: _215  and  _218
REMARK   78  A    between atoms: _220  and  _222
REMARK   79  A    between atoms: _222  and  _223
REMARK   80  A    between atoms: _222  and  _225
REMARK   81  A    between atoms: _225  and  _226
REMARK   82  A    between atoms: _229  and  _231
REMARK   83  A    between atoms: _231  and  _232
REMARK   84  A    between atoms: _231  and  _234
REMARK   85  A    between atoms: _234  and  _235
REMARK   86  A    between atoms: _238  and  _240
REMARK   87  A    between atoms: _240  and  _241
REMARK   88  A    between atoms: _240  and  _243
REMARK   89  A    between atoms: _243  and  _244
REMARK                            x       y       z     vdW  Elec       q    Type
REMARK                         _______ _______ _______ _____ _____    ______ ____
ROOT
ATOM      1  O   HOH     1      84.272  90.059 -43.992  0.00  0.00    +0.000 OA
ENDROOT
TORSDOF 0
REMARK  Name = ../refined-set-2016/5aba/5aba_pocket.pdb
REMARK  89 active torsions:
REMARK  status: ('A' for Active; 'I' for Inactive)
REMARK    1  A    between atoms: _1  and  _3
REMARK    2  A    between atoms: _3  and  _4
REMARK    3  A    between atoms: _3  and  _6
REMARK    4  A    between atoms: _6  and  _7
REMARK    5  A    between atoms: _12  and  _13
REMARK    6  A    between atoms: _15  and  _17
REMARK    7  A    between atoms: _17  and  _18
REMARK    8  A    between atoms: _17  and  _20
REMARK    9  A    between atoms: _20  and  _21
REMARK   10  A    between atoms: _27  and  _29
REMARK   11  A    between atoms: _29  and  _30
REMARK   12  A    between atoms: _29  and  _32
REMARK   13  A    between atoms: _32  and  _33
REMARK   14  A    between atoms: _33  and  _34
REMARK   15  A    between atoms: _34  and  _35
REMARK   16  A    between atoms: _44  and  _46
REMARK   17  A    between atoms: _46  and  _47
REMARK   18  A    between atoms: _46  and  _49
REMARK   19  A    between atoms: _49  and  _50
REMARK   20  A    between atoms: _50  and  _51
REMARK   21  A    between atoms: _56  and  _58
REMARK   22  A    between atoms: _58  and  _59
REMARK   23  A    between atoms: _58  and  _61
REMARK   24  A    between atoms: _61  and  _62
REMARK   25  A    between atoms: _65  and  _67
REMARK   26  A    between atoms: _67  and  _68
REMARK   27  A    between atoms: _67  and  _70
REMARK   28  A    between atoms: _70  and  _71
REMARK   29  A    between atoms: _81  and  _83
REMARK   30  A    between atoms: _83  and  _84
REMARK   31  A    between atoms: _83  and  _86
REMARK   32  A    between atoms: _89  and  _91
REMARK   33  A    between atoms: _91  and  _92
REMARK   34  A    between atoms: _91  and  _94
REMARK   35  A    between atoms: _94  and  _95
REMARK   36  A    between atoms: _98  and  _100
REMARK   37  A    between atoms: _100  and  _101
REMARK   38  A    between atoms: _100  and  _103
REMARK   39  A    between atoms: _103  and  _104
REMARK   40  A    between atoms: _106  and  _108
REMARK   41  A    between atoms: _108  and  _109
REMARK   42  A    between atoms: _108  and  _111
REMARK   43  A    between atoms: _111  and  _112
REMARK   44  A    between atoms: _116  and  _117
REMARK   45  A    between atoms: _123  and  _124
REMARK   46  A    between atoms: _130  and  _131
REMARK   47  A    between atoms: _136  and  _138
REMARK   48  A    between atoms: _138  and  _139
REMARK   49  A    between atoms: _141  and  _143
REMARK   50  A    between atoms: _143  and  _144
REMARK   51  A    between atoms: _143  and  _146
REMARK   52  A    between atoms: _146  and  _147
REMARK   53  A    between atoms: _150  and  _152
REMARK   54  A    between atoms: _152  and  _153
REMARK   55  A    between atoms: _152  and  _155
REMARK   56  A    between atoms: _159  and  _160
REMARK   57  A    between atoms: _165  and  _167
REMARK   58  A    between atoms: _167  and  _168
REMARK   59  A    between atoms: _167  and  _170
REMARK   60  A    between atoms: _172  and  _174
REMARK   61  A    between atoms: _174  and  _175
REMARK   62  A    between atoms: _174  and  _177
REMARK   63  A    between atoms: _177  and  _178
REMARK   64  A    between atoms: _178  and  _179
REMARK   65  A    between atoms: _183  and  _184
REMARK   66  A    between atoms: _190  and  _191
REMARK   67  A    between atoms: _196  and  _198
REMARK   68  A    between atoms: _198  and  _199
REMARK   69  A    between atoms: _198  and  _201
REMARK   70  A    between atoms: _201  and  _202
REMARK   71  A    between atoms: _204  and  _206
REMARK   72  A    between atoms: _206  and  _207
REMARK   73  A    between atoms: _206  and  _209
REMARK   74  A    between atoms: _209  and  _210
REMARK   75  A    between atoms: _213  and  _215
REMARK   76  A    between atoms: _215  and  _216
REMARK   77  A    between atoms: _215  and  _218
REMARK   78  A    between atoms: _220  and  _222
REMARK   79  A    between atoms: _222  and  _223
REMARK   80  A    between atoms: _222  and  _225
REMARK   81  A    between atoms: _225  and  _226
REMARK   82  A    between atoms: _229  and  _231
REMARK   83  A    between atoms: _231  and  _232
REMARK   84  A    between atoms: _231  and  _234
REMARK   85  A    between atoms: _234  and  _235
REMARK   86  A    between atoms: _238  and  _240
REMARK   87  A    between atoms: _240  and  _241
REMARK   88  A    between atoms: _240  and  _243
REMARK   89  A    between atoms: _243  and  _244
REMARK                            x       y       z     vdW  Elec       q    Type
REMARK                         _______ _______ _______ _____ _____    ______ ____
ROOT
ATOM      1  O   HOH     1      84.012  96.910 -44.130  0.00  0.00    +0.000 OA
ENDROOT
TORSDOF 0
REMARK  Name = ../refined-set-2016/5aba/5aba_pocket.pdb
REMARK  89 active torsions:
REMARK  status: ('A' for Active; 'I' for Inactive)
REMARK    1  A    between atoms: _1  and  _3
REMARK    2  A    between atoms: _3  and  _4
REMARK    3  A    between atoms: _3  and  _6
REMARK    4  A    between atoms: _6  and  _7
REMARK    5  A    between atoms: _12  and  _13
REMARK    6  A    between atoms: _15  and  _17
REMARK    7  A    between atoms: _17  and  _18
REMARK    8  A    between atoms: _17  and  _20
REMARK    9  A    between atoms: _20  and  _21
REMARK   10  A    between atoms: _27  and  _29
REMARK   11  A    between atoms: _29  and  _30
REMARK   12  A    between atoms: _29  and  _32
REMARK   13  A    between atoms: _32  and  _33
REMARK   14  A    between atoms: _33  and  _34
REMARK   15  A    between atoms: _34  and  _35
REMARK   16  A    between atoms: _44  and  _46
REMARK   17  A    between atoms: _46  and  _47
REMARK   18  A    between atoms: _46  and  _49
REMARK   19  A    between atoms: _49  and  _50
REMARK   20  A    between atoms: _50  and  _51
REMARK   21  A    between atoms: _56  and  _58
REMARK   22  A    between atoms: _58  and  _59
REMARK   23  A    between atoms: _58  and  _61
REMARK   24  A    between atoms: _61  and  _62
REMARK   25  A    between atoms: _65  and  _67
REMARK   26  A    between atoms: _67  and  _68
REMARK   27  A    between atoms: _67  and  _70
REMARK   28  A    between atoms: _70  and  _71
REMARK   29  A    between atoms: _81  and  _83
REMARK   30  A    between atoms: _83  and  _84
REMARK   31  A    between atoms: _83  and  _86
REMARK   32  A    between atoms: _89  and  _91
REMARK   33  A    between atoms: _91  and  _92
REMARK   34  A    between atoms: _91  and  _94
REMARK   35  A    between atoms: _94  and  _95
REMARK   36  A    between atoms: _98  and  _100
REMARK   37  A    between atoms: _100  and  _101
REMARK   38  A    between atoms: _100  and  _103
REMARK   39  A    between atoms: _103  and  _104
REMARK   40  A    between atoms: _106  and  _108
REMARK   41  A    between atoms: _108  and  _109
REMARK   42  A    between atoms: _108  and  _111
REMARK   43  A    between atoms: _111  and  _112
REMARK   44  A    between atoms: _116  and  _117
REMARK   45  A    between atoms: _123  and  _124
REMARK   46  A    between atoms: _130  and  _131
REMARK   47  A    between atoms: _136  and  _138
REMARK   48  A    between atoms: _138  and  _139
REMARK   49  A    between atoms: _141  and  _143
REMARK   50  A    between atoms: _143  and  _144
REMARK   51  A    between atoms: _143  and  _146
REMARK   52  A    between atoms: _146  and  _147
REMARK   53  A    between atoms: _150  and  _152
REMARK   54  A    between atoms: _152  and  _153
REMARK   55  A    between atoms: _152  and  _155
REMARK   56  A    between atoms: _159  and  _160
REMARK   57  A    between atoms: _165  and  _167
REMARK   58  A    between atoms: _167  and  _168
REMARK   59  A    between atoms: _167  and  _170
REMARK   60  A    between atoms: _172  and  _174
REMARK   61  A    between atoms: _174  and  _175
REMARK   62  A    between atoms: _174  and  _177
REMARK   63  A    between atoms: _177  and  _178
REMARK   64  A    between atoms: _178  and  _179
REMARK   65  A    between atoms: _183  and  _184
REMARK   66  A    between atoms: _190  and  _191
REMARK   67  A    between atoms: _196  and  _198
REMARK   68  A    between atoms: _198  and  _199
REMARK   69  A    between atoms: _198  and  _201
REMARK   70  A    between atoms: _201  and  _202
REMARK   71  A    between atoms: _204  and  _206
REMARK   72  A    between atoms: _206  and  _207
REMARK   73  A    between atoms: _206  and  _209
REMARK   74  A    between atoms: _209  and  _210
REMARK   75  A    between atoms: _213  and  _215
REMARK   76  A    between atoms: _215  and  _216
REMARK   77  A    between atoms: _215  and  _218
REMARK   78  A    between atoms: _220  and  _222
REMARK   79  A    between atoms: _222  and  _223
REMARK   80  A    between atoms: _222  and  _225
REMARK   81  A    between atoms: _225  and  _226
REMARK   82  A    between atoms: _229  and  _231
REMARK   83  A    between atoms: _231  and  _232
REMARK   84  A    between atoms: _231  and  _234
REMARK   85  A    between atoms: _234  and  _235
REMARK   86  A    between atoms: _238  and  _240
REMARK   87  A    between atoms: _240  and  _241
REMARK   88  A    between atoms: _240  and  _243
REMARK   89  A    between atoms: _243  and  _244
REMARK                            x       y       z     vdW  Elec       q    Type
REMARK                         _______ _______ _______ _____ _____    ______ ____
ROOT
ATOM      1  O   HOH     1      84.632  93.393 -37.956  0.00  0.00    +0.000 OA
ENDROOT
TORSDOF 0
REMARK  Name = ../refined-set-2016/5aba/5aba_pocket.pdb
REMARK  89 active torsions:
REMARK  status: ('A' for Active; 'I' for Inactive)
REMARK    1  A    between atoms: _1  and  _3
REMARK    2  A    between atoms: _3  and  _4
REMARK    3  A    between atoms: _3  and  _6
REMARK    4  A    between atoms: _6  and  _7
REMARK    5  A    between atoms: _12  and  _13
REMARK    6  A    between atoms: _15  and  _17
REMARK    7  A    between atoms: _17  and  _18
REMARK    8  A    between atoms: _17  and  _20
REMARK    9  A    between atoms: _20  and  _21
REMARK   10  A    between atoms: _27  and  _29
REMARK   11  A    between atoms: _29  and  _30
REMARK   12  A    between atoms: _29  and  _32
REMARK   13  A    between atoms: _32  and  _33
REMARK   14  A    between atoms: _33  and  _34
REMARK   15  A    between atoms: _34  and  _35
REMARK   16  A    between atoms: _44  and  _46
REMARK   17  A    between atoms: _46  and  _47
REMARK   18  A    between atoms: _46  and  _49
REMARK   19  A    between atoms: _49  and  _50
REMARK   20  A    between atoms: _50  and  _51
REMARK   21  A    between atoms: _56  and  _58
REMARK   22  A    between atoms: _58  and  _59
REMARK   23  A    between atoms: _58  and  _61
REMARK   24  A    between atoms: _61  and  _62
REMARK   25  A    between atoms: _65  and  _67
REMARK   26  A    between atoms: _67  and  _68
REMARK   27  A    between atoms: _67  and  _70
REMARK   28  A    between atoms: _70  and  _71
REMARK   29  A    between atoms: _81  and  _83
REMARK   30  A    between atoms: _83  and  _84
REMARK   31  A    between atoms: _83  and  _86
REMARK   32  A    between atoms: _89  and  _91
REMARK   33  A    between atoms: _91  and  _92
REMARK   34  A    between atoms: _91  and  _94
REMARK   35  A    between atoms: _94  and  _95
REMARK   36  A    between atoms: _98  and  _100
REMARK   37  A    between atoms: _100  and  _101
REMARK   38  A    between atoms: _100  and  _103
REMARK   39  A    between atoms: _103  and  _104
REMARK   40  A    between atoms: _106  and  _108
REMARK   41  A    between atoms: _108  and  _109
REMARK   42  A    between atoms: _108  and  _111
REMARK   43  A    between atoms: _111  and  _112
REMARK   44  A    between atoms: _116  and  _117
REMARK   45  A    between atoms: _123  and  _124
REMARK   46  A    between atoms: _130  and  _131
REMARK   47  A    between atoms: _136  and  _138
REMARK   48  A    between atoms: _138  and  _139
REMARK   49  A    between atoms: _141  and  _143
REMARK   50  A    between atoms: _143  and  _144
REMARK   51  A    between atoms: _143  and  _146
REMARK   52  A    between atoms: _146  and  _147
REMARK   53  A    between atoms: _150  and  _152
REMARK   54  A    between atoms: _152  and  _153
REMARK   55  A    between atoms: _152  and  _155
REMARK   56  A    between atoms: _159  and  _160
REMARK   57  A    between atoms: _165  and  _167
REMARK   58  A    between atoms: _167  and  _168
REMARK   59  A    between atoms: _167  and  _170
REMARK   60  A    between atoms: _172  and  _174
REMARK   61  A    between atoms: _174  and  _175
REMARK   62  A    between atoms: _174  and  _177
REMARK   63  A    between atoms: _177  and  _178
REMARK   64  A    between atoms: _178  and  _179
REMARK   65  A    between atoms: _183  and  _184
REMARK   66  A    between atoms: _190  and  _191
REMARK   67  A    between atoms: _196  and  _198
REMARK   68  A    between atoms: _198  and  _199
REMARK   69  A    between atoms: _198  and  _201
REMARK   70  A    between atoms: _201  and  _202
REMARK   71  A    between atoms: _204  and  _206
REMARK   72  A    between atoms: _206  and  _207
REMARK   73  A    between atoms: _206  and  _209
REMARK   74  A    between atoms: _209  and  _210
REMARK   75  A    between atoms: _213  and  _215
REMARK   76  A    between atoms: _215  and  _216
REMARK   77  A    between atoms: _215  and  _218
REMARK   78  A    between atoms: _220  and  _222
REMARK   79  A    between atoms: _222  and  _223
REMARK   80  A    between atoms: _222  and  _225
REMARK   81  A    between atoms: _225  and  _226
REMARK   82  A    between atoms: _229  and  _231
REMARK   83  A    between atoms: _231  and  _232
REMARK   84  A    between atoms: _231  and  _234
REMARK   85  A    between atoms: _234  and  _235
REMARK   86  A    between atoms: _238  and  _240
REMARK   87  A    between atoms: _240  and  _241
REMARK   88  A    between atoms: _240  and  _243
REMARK   89  A    between atoms: _243  and  _244
REMARK                            x       y       z     vdW  Elec       q    Type
REMARK                         _______ _______ _______ _____ _____    ______ ____
ROOT
ATOM      1  O   HOH     1      87.044  99.328 -42.311  0.00  0.00    +0.000 OA
ENDROOT
TORSDOF 0
REMARK  Name = ../refined-set-2016/5aba/5aba_pocket.pdb
REMARK  89 active torsions:
REMARK  status: ('A' for Active; 'I' for Inactive)
REMARK    1  A    between atoms: _1  and  _3
REMARK    2  A    between atoms: _3  and  _4
REMARK    3  A    between atoms: _3  and  _6
REMARK    4  A    between atoms: _6  and  _7
REMARK    5  A    between atoms: _12  and  _13
REMARK    6  A    between atoms: _15  and  _17
REMARK    7  A    between atoms: _17  and  _18
REMARK    8  A    between atoms: _17  and  _20
REMARK    9  A    between atoms: _20  and  _21
REMARK   10  A    between atoms: _27  and  _29
REMARK   11  A    between atoms: _29  and  _30
REMARK   12  A    between atoms: _29  and  _32
REMARK   13  A    between atoms: _32  and  _33
REMARK   14  A    between atoms: _33  and  _34
REMARK   15  A    between atoms: _34  and  _35
REMARK   16  A    between atoms: _44  and  _46
REMARK   17  A    between atoms: _46  and  _47
REMARK   18  A    between atoms: _46  and  _49
REMARK   19  A    between atoms: _49  and  _50
REMARK   20  A    between atoms: _50  and  _51
REMARK   21  A    between atoms: _56  and  _58
REMARK   22  A    between atoms: _58  and  _59
REMARK   23  A    between atoms: _58  and  _61
REMARK   24  A    between atoms: _61  and  _62
REMARK   25  A    between atoms: _65  and  _67
REMARK   26  A    between atoms: _67  and  _68
REMARK   27  A    between atoms: _67  and  _70
REMARK   28  A    between atoms: _70  and  _71
REMARK   29  A    between atoms: _81  and  _83
REMARK   30  A    between atoms: _83  and  _84
REMARK   31  A    between atoms: _83  and  _86
REMARK   32  A    between atoms: _89  and  _91
REMARK   33  A    between atoms: _91  and  _92
REMARK   34  A    between atoms: _91  and  _94
REMARK   35  A    between atoms: _94  and  _95
REMARK   36  A    between atoms: _98  and  _100
REMARK   37  A    between atoms: _100  and  _101
REMARK   38  A    between atoms: _100  and  _103
REMARK   39  A    between atoms: _103  and  _104
REMARK   40  A    between atoms: _106  and  _108
REMARK   41  A    between atoms: _108  and  _109
REMARK   42  A    between atoms: _108  and  _111
REMARK   43  A    between atoms: _111  and  _112
REMARK   44  A    between atoms: _116  and  _117
REMARK   45  A    between atoms: _123  and  _124
REMARK   46  A    between atoms: _130  and  _131
REMARK   47  A    between atoms: _136  and  _138
REMARK   48  A    between atoms: _138  and  _139
REMARK   49  A    between atoms: _141  and  _143
REMARK   50  A    between atoms: _143  and  _144
REMARK   51  A    between atoms: _143  and  _146
REMARK   52  A    between atoms: _146  and  _147
REMARK   53  A    between atoms: _150  and  _152
REMARK   54  A    between atoms: _152  and  _153
REMARK   55  A    between atoms: _152  and  _155
REMARK   56  A    between atoms: _159  and  _160
REMARK   57  A    between atoms: _165  and  _167
REMARK   58  A    between atoms: _167  and  _168
REMARK   59  A    between atoms: _167  and  _170
REMARK   60  A    between atoms: _172  and  _174
REMARK   61  A    between atoms: _174  and  _175
REMARK   62  A    between atoms: _174  and  _177
REMARK   63  A    between atoms: _177  and  _178
REMARK   64  A    between atoms: _178  and  _179
REMARK   65  A    between atoms: _183  and  _184
REMARK   66  A    between atoms: _190  and  _191
REMARK   67  A    between atoms: _196  and  _198
REMARK   68  A    between atoms: _198  and  _199
REMARK   69  A    between atoms: _198  and  _201
REMARK   70  A    between atoms: _201  and  _202
REMARK   71  A    between atoms: _204  and  _206
REMARK   72  A    between atoms: _206  and  _207
REMARK   73  A    between atoms: _206  and  _209
REMARK   74  A    between atoms: _209  and  _210
REMARK   75  A    between atoms: _213  and  _215
REMARK   76  A    between atoms: _215  and  _216
REMARK   77  A    between atoms: _215  and  _218
REMARK   78  A    between atoms: _220  and  _222
REMARK   79  A    between atoms: _222  and  _223
REMARK   80  A    between atoms: _222  and  _225
REMARK   81  A    between atoms: _225  and  _226
REMARK   82  A    between atoms: _229  and  _231
REMARK   83  A    between atoms: _231  and  _232
REMARK   84  A    between atoms: _231  and  _234
REMARK   85  A    between atoms: _234  and  _235
REMARK   86  A    between atoms: _238  and  _240
REMARK   87  A    between atoms: _240  and  _241
REMARK   88  A    between atoms: _240  and  _243
REMARK   89  A    between atoms: _243  and  _244
REMARK                            x       y       z     vdW  Elec       q    Type
REMARK                         _______ _______ _______ _____ _____    ______ ____
ROOT
ATOM      1  O   HOH     1      86.186  93.713 -35.437  0.00  0.00    +0.000 OA
ENDROOT
TORSDOF 0
REMARK  Name = ../refined-set-2016/5aba/5aba_pocket.pdb
REMARK  89 active torsions:
REMARK  status: ('A' for Active; 'I' for Inactive)
REMARK    1  A    between atoms: _1  and  _3
REMARK    2  A    between atoms: _3  and  _4
REMARK    3  A    between atoms: _3  and  _6
REMARK    4  A    between atoms: _6  and  _7
REMARK    5  A    between atoms: _12  and  _13
REMARK    6  A    between atoms: _15  and  _17
REMARK    7  A    between atoms: _17  and  _18
REMARK    8  A    between atoms: _17  and  _20
REMARK    9  A    between atoms: _20  and  _21
REMARK   10  A    between atoms: _27  and  _29
REMARK   11  A    between atoms: _29  and  _30
REMARK   12  A    between atoms: _29  and  _32
REMARK   13  A    between atoms: _32  and  _33
REMARK   14  A    between atoms: _33  and  _34
REMARK   15  A    between atoms: _34  and  _35
REMARK   16  A    between atoms: _44  and  _46
REMARK   17  A    between atoms: _46  and  _47
REMARK   18  A    between atoms: _46  and  _49
REMARK   19  A    between atoms: _49  and  _50
REMARK   20  A    between atoms: _50  and  _51
REMARK   21  A    between atoms: _56  and  _58
REMARK   22  A    between atoms: _58  and  _59
REMARK   23  A    between atoms: _58  and  _61
REMARK   24  A    between atoms: _61  and  _62
REMARK   25  A    between atoms: _65  and  _67
REMARK   26  A    between atoms: _67  and  _68
REMARK   27  A    between atoms: _67  and  _70
REMARK   28  A    between atoms: _70  and  _71
REMARK   29  A    between atoms: _81  and  _83
REMARK   30  A    between atoms: _83  and  _84
REMARK   31  A    between atoms: _83  and  _86
REMARK   32  A    between atoms: _89  and  _91
REMARK   33  A    between atoms: _91  and  _92
REMARK   34  A    between atoms: _91  and  _94
REMARK   35  A    between atoms: _94  and  _95
REMARK   36  A    between atoms: _98  and  _100
REMARK   37  A    between atoms: _100  and  _101
REMARK   38  A    between atoms: _100  and  _103
REMARK   39  A    between atoms: _103  and  _104
REMARK   40  A    between atoms: _106  and  _108
REMARK   41  A    between atoms: _108  and  _109
REMARK   42  A    between atoms: _108  and  _111
REMARK   43  A    between atoms: _111  and  _112
REMARK   44  A    between atoms: _116  and  _117
REMARK   45  A    between atoms: _123  and  _124
REMARK   46  A    between atoms: _130  and  _131
REMARK   47  A    between atoms: _136  and  _138
REMARK   48  A    between atoms: _138  and  _139
REMARK   49  A    between atoms: _141  and  _143
REMARK   50  A    between atoms: _143  and  _144
REMARK   51  A    between atoms: _143  and  _146
REMARK   52  A    between atoms: _146  and  _147
REMARK   53  A    between atoms: _150  and  _152
REMARK   54  A    between atoms: _152  and  _153
REMARK   55  A    between atoms: _152  and  _155
REMARK   56  A    between atoms: _159  and  _160
REMARK   57  A    between atoms: _165  and  _167
REMARK   58  A    between atoms: _167  and  _168
REMARK   59  A    between atoms: _167  and  _170
REMARK   60  A    between atoms: _172  and  _174
REMARK   61  A    between atoms: _174  and  _175
REMARK   62  A    between atoms: _174  and  _177
REMARK   63  A    between atoms: _177  and  _178
REMARK   64  A    between atoms: _178  and  _179
REMARK   65  A    between atoms: _183  and  _184
REMARK   66  A    between atoms: _190  and  _191
REMARK   67  A    between atoms: _196  and  _198
REMARK   68  A    between atoms: _198  and  _199
REMARK   69  A    between atoms: _198  and  _201
REMARK   70  A    between atoms: _201  and  _202
REMARK   71  A    between atoms: _204  and  _206
REMARK   72  A    between atoms: _206  and  _207
REMARK   73  A    between atoms: _206  and  _209
REMARK   74  A    between atoms: _209  and  _210
REMARK   75  A    between atoms: _213  and  _215
REMARK   76  A    between atoms: _215  and  _216
REMARK   77  A    between atoms: _215  and  _218
REMARK   78  A    between atoms: _220  and  _222
REMARK   79  A    between atoms: _222  and  _223
REMARK   80  A    between atoms: _222  and  _225
REMARK   81  A    between atoms: _225  and  _226
REMARK   82  A    between atoms: _229  and  _231
REMARK   83  A    between atoms: _231  and  _232
REMARK   84  A    between atoms: _231  and  _234
REMARK   85  A    between atoms: _234  and  _235
REMARK   86  A    between atoms: _238  and  _240
REMARK   87  A    between atoms: _240  and  _241
REMARK   88  A    between atoms: _240  and  _243
REMARK   89  A    between atoms: _243  and  _244
REMARK                            x       y       z     vdW  Elec       q    Type
REMARK                         _______ _______ _______ _____ _____    ______ ____
ROOT
ATOM      1  O   HOH     1      90.531 100.979 -40.183  0.00  0.00    +0.000 OA
ENDROOT
TORSDOF 0
REMARK  Name = ../refined-set-2016/5aba/5aba_pocket.pdb
REMARK  89 active torsions:
REMARK  status: ('A' for Active; 'I' for Inactive)
REMARK    1  A    between atoms: _1  and  _3
REMARK    2  A    between atoms: _3  and  _4
REMARK    3  A    between atoms: _3  and  _6
REMARK    4  A    between atoms: _6  and  _7
REMARK    5  A    between atoms: _12  and  _13
REMARK    6  A    between atoms: _15  and  _17
REMARK    7  A    between atoms: _17  and  _18
REMARK    8  A    between atoms: _17  and  _20
REMARK    9  A    between atoms: _20  and  _21
REMARK   10  A    between atoms: _27  and  _29
REMARK   11  A    between atoms: _29  and  _30
REMARK   12  A    between atoms: _29  and  _32
REMARK   13  A    between atoms: _32  and  _33
REMARK   14  A    between atoms: _33  and  _34
REMARK   15  A    between atoms: _34  and  _35
REMARK   16  A    between atoms: _44  and  _46
REMARK   17  A    between atoms: _46  and  _47
REMARK   18  A    between atoms: _46  and  _49
REMARK   19  A    between atoms: _49  and  _50
REMARK   20  A    between atoms: _50  and  _51
REMARK   21  A    between atoms: _56  and  _58
REMARK   22  A    between atoms: _58  and  _59
REMARK   23  A    between atoms: _58  and  _61
REMARK   24  A    between atoms: _61  and  _62
REMARK   25  A    between atoms: _65  and  _67
REMARK   26  A    between atoms: _67  and  _68
REMARK   27  A    between atoms: _67  and  _70
REMARK   28  A    between atoms: _70  and  _71
REMARK   29  A    between atoms: _81  and  _83
REMARK   30  A    between atoms: _83  and  _84
REMARK   31  A    between atoms: _83  and  _86
REMARK   32  A    between atoms: _89  and  _91
REMARK   33  A    between atoms: _91  and  _92
REMARK   34  A    between atoms: _91  and  _94
REMARK   35  A    between atoms: _94  and  _95
REMARK   36  A    between atoms: _98  and  _100
REMARK   37  A    between atoms: _100  and  _101
REMARK   38  A    between atoms: _100  and  _103
REMARK   39  A    between atoms: _103  and  _104
REMARK   40  A    between atoms: _106  and  _108
REMARK   41  A    between atoms: _108  and  _109
REMARK   42  A    between atoms: _108  and  _111
REMARK   43  A    between atoms: _111  and  _112
REMARK   44  A    between atoms: _116  and  _117
REMARK   45  A    between atoms: _123  and  _124
REMARK   46  A    between atoms: _130  and  _131
REMARK   47  A    between atoms: _136  and  _138
REMARK   48  A    between atoms: _138  and  _139
REMARK   49  A    between atoms: _141  and  _143
REMARK   50  A    between atoms: _143  and  _144
REMARK   51  A    between atoms: _143  and  _146
REMARK   52  A    between atoms: _146  and  _147
REMARK   53  A    between atoms: _150  and  _152
REMARK   54  A    between atoms: _152  and  _153
REMARK   55  A    between atoms: _152  and  _155
REMARK   56  A    between atoms: _159  and  _160
REMARK   57  A    between atoms: _165  and  _167
REMARK   58  A    between atoms: _167  and  _168
REMARK   59  A    between atoms: _167  and  _170
REMARK   60  A    between atoms: _172  and  _174
REMARK   61  A    between atoms: _174  and  _175
REMARK   62  A    between atoms: _174  and  _177
REMARK   63  A    between atoms: _177  and  _178
REMARK   64  A    between atoms: _178  and  _179
REMARK   65  A    between atoms: _183  and  _184
REMARK   66  A    between atoms: _190  and  _191
REMARK   67  A    between atoms: _196  and  _198
REMARK   68  A    between atoms: _198  and  _199
REMARK   69  A    between atoms: _198  and  _201
REMARK   70  A    between atoms: _201  and  _202
REMARK   71  A    between atoms: _204  and  _206
REMARK   72  A    between atoms: _206  and  _207
REMARK   73  A    between atoms: _206  and  _209
REMARK   74  A    between atoms: _209  and  _210
REMARK   75  A    between atoms: _213  and  _215
REMARK   76  A    between atoms: _215  and  _216
REMARK   77  A    between atoms: _215  and  _218
REMARK   78  A    between atoms: _220  and  _222
REMARK   79  A    between atoms: _222  and  _223
REMARK   80  A    between atoms: _222  and  _225
REMARK   81  A    between atoms: _225  and  _226
REMARK   82  A    between atoms: _229  and  _231
REMARK   83  A    between atoms: _231  and  _232
REMARK   84  A    between atoms: _231  and  _234
REMARK   85  A    between atoms: _234  and  _235
REMARK   86  A    between atoms: _238  and  _240
REMARK   87  A    between atoms: _240  and  _241
REMARK   88  A    between atoms: _240  and  _243
REMARK   89  A    between atoms: _243  and  _244
REMARK                            x       y       z     vdW  Elec       q    Type
REMARK                         _______ _______ _______ _____ _____    ______ ____
ROOT
ATOM      1  O   HOH     1      88.081 101.759 -41.501  0.00  0.00    +0.000 OA
ENDROOT
TORSDOF 0
REMARK  Name = ../refined-set-2016/5aba/5aba_pocket.pdb
REMARK  89 active torsions:
REMARK  status: ('A' for Active; 'I' for Inactive)
REMARK    1  A    between atoms: _1  and  _3
REMARK    2  A    between atoms: _3  and  _4
REMARK    3  A    between atoms: _3  and  _6
REMARK    4  A    between atoms: _6  and  _7
REMARK    5  A    between atoms: _12  and  _13
REMARK    6  A    between atoms: _15  and  _17
REMARK    7  A    between atoms: _17  and  _18
REMARK    8  A    between atoms: _17  and  _20
REMARK    9  A    between atoms: _20  and  _21
REMARK   10  A    between atoms: _27  and  _29
REMARK   11  A    between atoms: _29  and  _30
REMARK   12  A    between atoms: _29  and  _32
REMARK   13  A    between atoms: _32  and  _33
REMARK   14  A    between atoms: _33  and  _34
REMARK   15  A    between atoms: _34  and  _35
REMARK   16  A    between atoms: _44  and  _46
REMARK   17  A    between atoms: _46  and  _47
REMARK   18  A    between atoms: _46  and  _49
REMARK   19  A    between atoms: _49  and  _50
REMARK   20  A    between atoms: _50  and  _51
REMARK   21  A    between atoms: _56  and  _58
REMARK   22  A    between atoms: _58  and  _59
REMARK   23  A    between atoms: _58  and  _61
REMARK   24  A    between atoms: _61  and  _62
REMARK   25  A    between atoms: _65  and  _67
REMARK   26  A    between atoms: _67  and  _68
REMARK   27  A    between atoms: _67  and  _70
REMARK   28  A    between atoms: _70  and  _71
REMARK   29  A    between atoms: _81  and  _83
REMARK   30  A    between atoms: _83  and  _84
REMARK   31  A    between atoms: _83  and  _86
REMARK   32  A    between atoms: _89  and  _91
REMARK   33  A    between atoms: _91  and  _92
REMARK   34  A    between atoms: _91  and  _94
REMARK   35  A    between atoms: _94  and  _95
REMARK   36  A    between atoms: _98  and  _100
REMARK   37  A    between atoms: _100  and  _101
REMARK   38  A    between atoms: _100  and  _103
REMARK   39  A    between atoms: _103  and  _104
REMARK   40  A    between atoms: _106  and  _108
REMARK   41  A    between atoms: _108  and  _109
REMARK   42  A    between atoms: _108  and  _111
REMARK   43  A    between atoms: _111  and  _112
REMARK   44  A    between atoms: _116  and  _117
REMARK   45  A    between atoms: _123  and  _124
REMARK   46  A    between atoms: _130  and  _131
REMARK   47  A    between atoms: _136  and  _138
REMARK   48  A    between atoms: _138  and  _139
REMARK   49  A    between atoms: _141  and  _143
REMARK   50  A    between atoms: _143  and  _144
REMARK   51  A    between atoms: _143  and  _146
REMARK   52  A    between atoms: _146  and  _147
REMARK   53  A    between atoms: _150  and  _152
REMARK   54  A    between atoms: _152  and  _153
REMARK   55  A    between atoms: _152  and  _155
REMARK   56  A    between atoms: _159  and  _160
REMARK   57  A    between atoms: _165  and  _167
REMARK   58  A    between atoms: _167  and  _168
REMARK   59  A    between atoms: _167  and  _170
REMARK   60  A    between atoms: _172  and  _174
REMARK   61  A    between atoms: _174  and  _175
REMARK   62  A    between atoms: _174  and  _177
REMARK   63  A    between atoms: _177  and  _178
REMARK   64  A    between atoms: _178  and  _179
REMARK   65  A    between atoms: _183  and  _184
REMARK   66  A    between atoms: _190  and  _191
REMARK   67  A    between atoms: _196  and  _198
REMARK   68  A    between atoms: _198  and  _199
REMARK   69  A    between atoms: _198  and  _201
REMARK   70  A    between atoms: _201  and  _202
REMARK   71  A    between atoms: _204  and  _206
REMARK   72  A    between atoms: _206  and  _207
REMARK   73  A    between atoms: _206  and  _209
REMARK   74  A    between atoms: _209  and  _210
REMARK   75  A    between atoms: _213  and  _215
REMARK   76  A    between atoms: _215  and  _216
REMARK   77  A    between atoms: _215  and  _218
REMARK   78  A    between atoms: _220  and  _222
REMARK   79  A    between atoms: _222  and  _223
REMARK   80  A    between atoms: _222  and  _225
REMARK   81  A    between atoms: _225  and  _226
REMARK   82  A    between atoms: _229  and  _231
REMARK   83  A    between atoms: _231  and  _232
REMARK   84  A    between atoms: _231  and  _234
REMARK   85  A    between atoms: _234  and  _235
REMARK   86  A    between atoms: _238  and  _240
REMARK   87  A    between atoms: _240  and  _241
REMARK   88  A    between atoms: _240  and  _243
REMARK   89  A    between atoms: _243  and  _244
REMARK                            x       y       z     vdW  Elec       q    Type
REMARK                         _______ _______ _______ _____ _____    ______ ____
ROOT
ATOM      1  O   HOH     1      85.564  90.750 -37.764  0.00  0.00    +0.000 OA
ENDROOT
TORSDOF 0
