REMARK  Name = ../refined-set-2016/4cu7/4cu7_pocket.pdb
REMARK  158 active torsions:
REMARK  status: ('A' for Active; 'I' for Inactive)
REMARK    1  A    between atoms: _1  and  _3
REMARK    2  A    between atoms: _3  and  _4
REMARK    3  A    between atoms: _3  and  _6
REMARK    4  A    between atoms: _6  and  _7
REMARK    5  A    between atoms: _7  and  _8
REMARK    6  A    between atoms: _11  and  _13
REMARK    7  A    between atoms: _13  and  _14
REMARK    8  A    between atoms: _13  and  _16
REMARK    9  A    between atoms: _16  and  _17
REMARK   10  A    between atoms: _17  and  _18
REMARK   11  A    between atoms: _18  and  _19
REMARK   12  A    between atoms: _28  and  _30
REMARK   13  A    between atoms: _30  and  _31
REMARK   14  A    between atoms: _30  and  _33
REMARK   15  A    between atoms: _33  and  _34
REMARK   16  A    between atoms: _44  and  _46
REMARK   17  A    between atoms: _46  and  _47
REMARK   18  A    between atoms: _46  and  _49
REMARK   19  A    between atoms: _49  and  _50
REMARK   20  A    between atoms: _52  and  _54
REMARK   21  A    between atoms: _54  and  _55
REMARK   22  A    between atoms: _54  and  _57
REMARK   23  A    between atoms: _57  and  _58
REMARK   24  A    between atoms: _63  and  _65
REMARK   25  A    between atoms: _65  and  _66
REMARK   26  A    between atoms: _65  and  _68
REMARK   27  A    between atoms: _68  and  _69
REMARK   28  A    between atoms: _69  and  _70
REMARK   29  A    between atoms: _70  and  _71
REMARK   30  A    between atoms: _80  and  _82
REMARK   31  A    between atoms: _82  and  _83
REMARK   32  A    between atoms: _82  and  _85
REMARK   33  A    between atoms: _85  and  _86
REMARK   34  A    between atoms: _89  and  _91
REMARK   35  A    between atoms: _91  and  _92
REMARK   36  A    between atoms: _91  and  _94
REMARK   37  A    between atoms: _94  and  _95
REMARK   38  A    between atoms: _100  and  _102
REMARK   39  A    between atoms: _102  and  _103
REMARK   40  A    between atoms: _102  and  _105
REMARK   41  A    between atoms: _105  and  _106
REMARK   42  A    between atoms: _106  and  _107
REMARK   43  A    between atoms: _110  and  _112
REMARK   44  A    between atoms: _112  and  _113
REMARK   45  A    between atoms: _112  and  _115
REMARK   46  A    between atoms: _115  and  _116
REMARK   47  A    between atoms: _119  and  _121
REMARK   48  A    between atoms: _121  and  _122
REMARK   49  A    between atoms: _121  and  _124
REMARK   50  A    between atoms: _124  and  _125
REMARK   51  A    between atoms: _125  and  _126
REMARK   52  A    between atoms: _126  and  _127
REMARK   53  A    between atoms: _127  and  _128
REMARK   54  A    between atoms: _132  and  _134
REMARK   55  A    between atoms: _134  and  _135
REMARK   56  A    between atoms: _134  and  _137
REMARK   57  A    between atoms: _137  and  _138
REMARK   58  A    between atoms: _143  and  _145
REMARK   59  A    between atoms: _145  and  _146
REMARK   60  A    between atoms: _145  and  _148
REMARK   61  A    between atoms: _148  and  _149
REMARK   62  A    between atoms: _149  and  _150
REMARK   63  A    between atoms: _153  and  _155
REMARK   64  A    between atoms: _155  and  _156
REMARK   65  A    between atoms: _158  and  _160
REMARK   66  A    between atoms: _160  and  _161
REMARK   67  A    between atoms: _160  and  _163
REMARK   68  A    between atoms: _163  and  _164
REMARK   69  A    between atoms: _167  and  _169
REMARK   70  A    between atoms: _169  and  _170
REMARK   71  A    between atoms: _169  and  _172
REMARK   72  A    between atoms: _172  and  _173
REMARK   73  A    between atoms: _173  and  _174
REMARK   74  A    between atoms: _174  and  _175
REMARK   75  A    between atoms: _184  and  _186
REMARK   76  A    between atoms: _186  and  _187
REMARK   77  A    between atoms: _186  and  _189
REMARK   78  A    between atoms: _189  and  _190
REMARK   79  A    between atoms: _195  and  _197
REMARK   80  A    between atoms: _197  and  _198
REMARK   81  A    between atoms: _197  and  _200
REMARK   82  A    between atoms: _200  and  _201
REMARK   83  A    between atoms: _206  and  _207
REMARK   84  A    between atoms: _209  and  _211
REMARK   85  A    between atoms: _211  and  _212
REMARK   86  A    between atoms: _211  and  _214
REMARK   87  A    between atoms: _214  and  _215
REMARK   88  A    between atoms: _215  and  _216
REMARK   89  A    between atoms: _219  and  _221
REMARK   90  A    between atoms: _221  and  _222
REMARK   91  A    between atoms: _221  and  _224
REMARK   92  A    between atoms: _224  and  _225
REMARK   93  A    between atoms: _228  and  _230
REMARK   94  A    between atoms: _230  and  _231
REMARK   95  A    between atoms: _230  and  _233
REMARK   96  A    between atoms: _233  and  _234
REMARK   97  A    between atoms: _236  and  _238
REMARK   98  A    between atoms: _238  and  _239
REMARK   99  A    between atoms: _238  and  _241
REMARK  100  A    between atoms: _241  and  _242
REMARK  101  A    between atoms: _244  and  _246
REMARK  102  A    between atoms: _246  and  _247
REMARK  103  A    between atoms: _250  and  _252
REMARK  104  A    between atoms: _252  and  _253
REMARK  105  A    between atoms: _252  and  _255
REMARK  106  A    between atoms: _255  and  _256
REMARK  107  A    between atoms: _259  and  _261
REMARK  108  A    between atoms: _261  and  _262
REMARK  109  A    between atoms: _261  and  _264
REMARK  110  A    between atoms: _264  and  _265
REMARK  111  A    between atoms: _270  and  _272
REMARK  112  A    between atoms: _272  and  _273
REMARK  113  A    between atoms: _272  and  _275
REMARK  114  A    between atoms: _278  and  _280
REMARK  115  A    between atoms: _280  and  _281
REMARK  116  A    between atoms: _283  and  _285
REMARK  117  A    between atoms: _285  and  _286
REMARK  118  A    between atoms: _285  and  _288
REMARK  119  A    between atoms: _288  and  _289
REMARK  120  A    between atoms: _299  and  _301
REMARK  121  A    between atoms: _301  and  _302
REMARK  122  A    between atoms: _304  and  _306
REMARK  123  A    between atoms: _306  and  _307
REMARK  124  A    between atoms: _306  and  _309
REMARK  125  A    between atoms: _309  and  _310
REMARK  126  A    between atoms: _310  and  _311
REMARK  127  A    between atoms: _311  and  _312
REMARK  128  A    between atoms: _312  and  _313
REMARK  129  A    between atoms: _317  and  _319
REMARK  130  A    between atoms: _319  and  _320
REMARK  131  A    between atoms: _319  and  _322
REMARK  132  A    between atoms: _322  and  _323
REMARK  133  A    between atoms: _333  and  _335
REMARK  134  A    between atoms: _335  and  _336
REMARK  135  A    between atoms: _335  and  _338
REMARK  136  A    between atoms: _338  and  _339
REMARK  137  A    between atoms: _342  and  _344
REMARK  138  A    between atoms: _344  and  _345
REMARK  139  A    between atoms: _344  and  _347
REMARK  140  A    between atoms: _347  and  _348
REMARK  141  A    between atoms: _353  and  _354
REMARK  142  A    between atoms: _356  and  _358
REMARK  143  A    between atoms: _358  and  _359
REMARK  144  A    between atoms: _358  and  _361
REMARK  145  A    between atoms: _361  and  _362
REMARK  146  A    between atoms: _362  and  _363
REMARK  147  A    between atoms: _366  and  _368
REMARK  148  A    between atoms: _368  and  _369
REMARK  149  A    between atoms: _368  and  _371
REMARK  150  A    between atoms: _371  and  _372
REMARK  151  A    between atoms: _375  and  _377
REMARK  152  A    between atoms: _377  and  _378
REMARK  153  A    between atoms: _377  and  _380
REMARK  154  A    between atoms: _380  and  _381
REMARK  155  A    between atoms: _386  and  _388
REMARK  156  A    between atoms: _388  and  _389
REMARK  157  A    between atoms: _388  and  _391
REMARK  158  A    between atoms: _391  and  _392
REMARK                            x       y       z     vdW  Elec       q    Type
REMARK                         _______ _______ _______ _____ _____    ______ ____
ROOT
ATOM      1  CA  GLU A   1     102.207  18.764  -1.324  0.00  0.00    +0.134 C 
ENDROOT
BRANCH   1   2
ATOM      2  N   GLU A   1     103.085  19.094  -2.455  0.00  0.00    -0.239 NA
ATOM      3  H   GLU A   1     104.082  19.336  -2.285  0.00  0.00    +0.142 HD
ENDBRANCH   1   2
BRANCH   1   4
ATOM      4  C   GLU A   1     101.055  19.760  -1.248  0.00  0.00    +0.224 C 
ATOM      5  O   GLU A   1      99.958  19.393  -0.870  0.00  0.00    -0.287 OA
ENDBRANCH   1   4
BRANCH   1   6
ATOM      6  CB  GLU A   1     102.960  18.651   0.012  0.00  0.00    +0.037 C 
BRANCH   6   7
ATOM      7  CG  GLU A   1     103.307  19.985   0.690  0.00  0.00    +0.116 C 
BRANCH   7   8
ATOM      8  CD  GLU A   1     104.152  19.759   1.955  0.00  0.00    +0.365 C 
ATOM      9  OE2 GLU A   1     103.679  19.060   2.879  0.00  0.00    -0.246 OA
ATOM     10  OE1 GLU A   1     105.298  20.262   2.007  0.00  0.00    -0.246 OA
ENDBRANCH   7   8
ENDBRANCH   6   7
ENDBRANCH   1   6
TORSDOF 5
REMARK  Name = ../refined-set-2016/4cu7/4cu7_pocket.pdb
REMARK  158 active torsions:
REMARK  status: ('A' for Active; 'I' for Inactive)
REMARK    1  A    between atoms: _1  and  _3
REMARK    2  A    between atoms: _3  and  _4
REMARK    3  A    between atoms: _3  and  _6
REMARK    4  A    between atoms: _6  and  _7
REMARK    5  A    between atoms: _7  and  _8
REMARK    6  A    between atoms: _11  and  _13
REMARK    7  A    between atoms: _13  and  _14
REMARK    8  A    between atoms: _13  and  _16
REMARK    9  A    between atoms: _16  and  _17
REMARK   10  A    between atoms: _17  and  _18
REMARK   11  A    between atoms: _18  and  _19
REMARK   12  A    between atoms: _28  and  _30
REMARK   13  A    between atoms: _30  and  _31
REMARK   14  A    between atoms: _30  and  _33
REMARK   15  A    between atoms: _33  and  _34
REMARK   16  A    between atoms: _44  and  _46
REMARK   17  A    between atoms: _46  and  _47
REMARK   18  A    between atoms: _46  and  _49
REMARK   19  A    between atoms: _49  and  _50
REMARK   20  A    between atoms: _52  and  _54
REMARK   21  A    between atoms: _54  and  _55
REMARK   22  A    between atoms: _54  and  _57
REMARK   23  A    between atoms: _57  and  _58
REMARK   24  A    between atoms: _63  and  _65
REMARK   25  A    between atoms: _65  and  _66
REMARK   26  A    between atoms: _65  and  _68
REMARK   27  A    between atoms: _68  and  _69
REMARK   28  A    between atoms: _69  and  _70
REMARK   29  A    between atoms: _70  and  _71
REMARK   30  A    between atoms: _80  and  _82
REMARK   31  A    between atoms: _82  and  _83
REMARK   32  A    between atoms: _82  and  _85
REMARK   33  A    between atoms: _85  and  _86
REMARK   34  A    between atoms: _89  and  _91
REMARK   35  A    between atoms: _91  and  _92
REMARK   36  A    between atoms: _91  and  _94
REMARK   37  A    between atoms: _94  and  _95
REMARK   38  A    between atoms: _100  and  _102
REMARK   39  A    between atoms: _102  and  _103
REMARK   40  A    between atoms: _102  and  _105
REMARK   41  A    between atoms: _105  and  _106
REMARK   42  A    between atoms: _106  and  _107
REMARK   43  A    between atoms: _110  and  _112
REMARK   44  A    between atoms: _112  and  _113
REMARK   45  A    between atoms: _112  and  _115
REMARK   46  A    between atoms: _115  and  _116
REMARK   47  A    between atoms: _119  and  _121
REMARK   48  A    between atoms: _121  and  _122
REMARK   49  A    between atoms: _121  and  _124
REMARK   50  A    between atoms: _124  and  _125
REMARK   51  A    between atoms: _125  and  _126
REMARK   52  A    between atoms: _126  and  _127
REMARK   53  A    between atoms: _127  and  _128
REMARK   54  A    between atoms: _132  and  _134
REMARK   55  A    between atoms: _134  and  _135
REMARK   56  A    between atoms: _134  and  _137
REMARK   57  A    between atoms: _137  and  _138
REMARK   58  A    between atoms: _143  and  _145
REMARK   59  A    between atoms: _145  and  _146
REMARK   60  A    between atoms: _145  and  _148
REMARK   61  A    between atoms: _148  and  _149
REMARK   62  A    between atoms: _149  and  _150
REMARK   63  A    between atoms: _153  and  _155
REMARK   64  A    between atoms: _155  and  _156
REMARK   65  A    between atoms: _158  and  _160
REMARK   66  A    between atoms: _160  and  _161
REMARK   67  A    between atoms: _160  and  _163
REMARK   68  A    between atoms: _163  and  _164
REMARK   69  A    between atoms: _167  and  _169
REMARK   70  A    between atoms: _169  and  _170
REMARK   71  A    between atoms: _169  and  _172
REMARK   72  A    between atoms: _172  and  _173
REMARK   73  A    between atoms: _173  and  _174
REMARK   74  A    between atoms: _174  and  _175
REMARK   75  A    between atoms: _184  and  _186
REMARK   76  A    between atoms: _186  and  _187
REMARK   77  A    between atoms: _186  and  _189
REMARK   78  A    between atoms: _189  and  _190
REMARK   79  A    between atoms: _195  and  _197
REMARK   80  A    between atoms: _197  and  _198
REMARK   81  A    between atoms: _197  and  _200
REMARK   82  A    between atoms: _200  and  _201
REMARK   83  A    between atoms: _206  and  _207
REMARK   84  A    between atoms: _209  and  _211
REMARK   85  A    between atoms: _211  and  _212
REMARK   86  A    between atoms: _211  and  _214
REMARK   87  A    between atoms: _214  and  _215
REMARK   88  A    between atoms: _215  and  _216
REMARK   89  A    between atoms: _219  and  _221
REMARK   90  A    between atoms: _221  and  _222
REMARK   91  A    between atoms: _221  and  _224
REMARK   92  A    between atoms: _224  and  _225
REMARK   93  A    between atoms: _228  and  _230
REMARK   94  A    between atoms: _230  and  _231
REMARK   95  A    between atoms: _230  and  _233
REMARK   96  A    between atoms: _233  and  _234
REMARK   97  A    between atoms: _236  and  _238
REMARK   98  A    between atoms: _238  and  _239
REMARK   99  A    between atoms: _238  and  _241
REMARK  100  A    between atoms: _241  and  _242
REMARK  101  A    between atoms: _244  and  _246
REMARK  102  A    between atoms: _246  and  _247
REMARK  103  A    between atoms: _250  and  _252
REMARK  104  A    between atoms: _252  and  _253
REMARK  105  A    between atoms: _252  and  _255
REMARK  106  A    between atoms: _255  and  _256
REMARK  107  A    between atoms: _259  and  _261
REMARK  108  A    between atoms: _261  and  _262
REMARK  109  A    between atoms: _261  and  _264
REMARK  110  A    between atoms: _264  and  _265
REMARK  111  A    between atoms: _270  and  _272
REMARK  112  A    between atoms: _272  and  _273
REMARK  113  A    between atoms: _272  and  _275
REMARK  114  A    between atoms: _278  and  _280
REMARK  115  A    between atoms: _280  and  _281
REMARK  116  A    between atoms: _283  and  _285
REMARK  117  A    between atoms: _285  and  _286
REMARK  118  A    between atoms: _285  and  _288
REMARK  119  A    between atoms: _288  and  _289
REMARK  120  A    between atoms: _299  and  _301
REMARK  121  A    between atoms: _301  and  _302
REMARK  122  A    between atoms: _304  and  _306
REMARK  123  A    between atoms: _306  and  _307
REMARK  124  A    between atoms: _306  and  _309
REMARK  125  A    between atoms: _309  and  _310
REMARK  126  A    between atoms: _310  and  _311
REMARK  127  A    between atoms: _311  and  _312
REMARK  128  A    between atoms: _312  and  _313
REMARK  129  A    between atoms: _317  and  _319
REMARK  130  A    between atoms: _319  and  _320
REMARK  131  A    between atoms: _319  and  _322
REMARK  132  A    between atoms: _322  and  _323
REMARK  133  A    between atoms: _333  and  _335
REMARK  134  A    between atoms: _335  and  _336
REMARK  135  A    between atoms: _335  and  _338
REMARK  136  A    between atoms: _338  and  _339
REMARK  137  A    between atoms: _342  and  _344
REMARK  138  A    between atoms: _344  and  _345
REMARK  139  A    between atoms: _344  and  _347
REMARK  140  A    between atoms: _347  and  _348
REMARK  141  A    between atoms: _353  and  _354
REMARK  142  A    between atoms: _356  and  _358
REMARK  143  A    between atoms: _358  and  _359
REMARK  144  A    between atoms: _358  and  _361
REMARK  145  A    between atoms: _361  and  _362
REMARK  146  A    between atoms: _362  and  _363
REMARK  147  A    between atoms: _366  and  _368
REMARK  148  A    between atoms: _368  and  _369
REMARK  149  A    between atoms: _368  and  _371
REMARK  150  A    between atoms: _371  and  _372
REMARK  151  A    between atoms: _375  and  _377
REMARK  152  A    between atoms: _377  and  _378
REMARK  153  A    between atoms: _377  and  _380
REMARK  154  A    between atoms: _380  and  _381
REMARK  155  A    between atoms: _386  and  _388
REMARK  156  A    between atoms: _388  and  _389
REMARK  157  A    between atoms: _388  and  _391
REMARK  158  A    between atoms: _391  and  _392
REMARK                            x       y       z     vdW  Elec       q    Type
REMARK                         _______ _______ _______ _____ _____    ______ ____
ROOT
ATOM      1  C   ARG A   1      99.481  19.484   2.741  0.00  0.00    +0.238 C 
ATOM      2  N   TRP A   2      98.507  20.277   2.325  0.00  0.00    -0.298 N 
ATOM      3  H   TRP A   2      98.422  21.222   2.752  0.00  0.00    +0.150 HD
ATOM      4  O   ARG A   1      99.640  18.336   2.322  0.00  0.00    -0.274 OA
ENDROOT
BRANCH   1   5
ATOM      5  CA  ARG A   1     100.398  20.048   3.841  0.00  0.00    +0.145 C 
BRANCH   5   6
ATOM      6  N   ARG A   1      99.930  21.356   4.295  0.00  0.00    -0.238 NA
ATOM      7  H   ARG A   1      99.207  21.420   5.040  0.00  0.00    +0.142 HD
ENDBRANCH   5   6
BRANCH   5   8
ATOM      8  CB  ARG A   1     100.513  19.059   5.013  0.00  0.00    +0.030 C 
BRANCH   8   9
ATOM      9  CG  ARG A   1     101.431  19.514   6.172  0.00  0.00    +0.045 C 
BRANCH   9  10
ATOM     10  CD  ARG A   1     101.522  18.469   7.290  0.00  0.00    +0.174 C 
BRANCH  10  11
ATOM     11  NE  ARG A   1     100.201  18.132   7.842  0.00  0.00    -0.265 N 
ATOM     12  HE  ARG A   1      99.781  18.787   8.532  0.00  0.00    +0.259 HD
ATOM     13  CZ  ARG A   1      99.508  17.045   7.517  0.00  0.00    +0.342 C 
ATOM     14  NH2 ARG A   1      98.322  16.810   8.089  0.00  0.00    -0.292 N 
ATOM     15 HH21 ARG A   1      97.941  17.478   8.789  0.00  0.00    +0.255 HD
ATOM     16 HH22 ARG A   1      97.781  15.959   7.834  0.00  0.00    +0.255 HD
ATOM     17  NH1 ARG A   1      99.979  16.178   6.628  0.00  0.00    -0.292 N 
ATOM     18 HH11 ARG A   1      99.426  15.332   6.383  0.00  0.00    +0.255 HD
ATOM     19 HH12 ARG A   1     100.901  16.345   6.176  0.00  0.00    +0.255 HD
ENDBRANCH  10  11
ENDBRANCH   9  10
ENDBRANCH   8   9
ENDBRANCH   5   8
ENDBRANCH   1   5
BRANCH   2  20
ATOM     20  CA  TRP A   2      97.532  19.885   1.281  0.00  0.00    +0.141 C 
BRANCH  20  21
ATOM     21  C   TRP A   2      97.146  21.155   0.556  0.00  0.00    +0.227 C 
ATOM     22  O   TRP A   2      97.470  22.233   1.022  0.00  0.00    -0.286 OA
ENDBRANCH  20  21
BRANCH  20  23
ATOM     23  CB  TRP A   2      96.282  19.247   1.922  0.00  0.00    +0.056 C 
BRANCH  23  24
ATOM     24  CG  TRP A   2      95.552  20.129   2.929  0.00  0.00    -0.002 A 
ATOM     25  CD2 TRP A   2      95.775  20.159   4.336  0.00  0.00    +0.013 A 
ATOM     26  CE3 TRP A   2      96.636  19.451   5.194  0.00  0.00    +0.001 A 
ATOM     27  CZ3 TRP A   2      96.579  19.729   6.557  0.00  0.00    +0.000 A 
ATOM     28  CH2 TRP A   2      95.651  20.687   7.085  0.00  0.00    +0.001 A 
ATOM     29  CZ2 TRP A   2      94.803  21.385   6.272  0.00  0.00    +0.017 A 
ATOM     30  CE2 TRP A   2      94.858  21.104   4.894  0.00  0.00    +0.056 A 
ATOM     31  NE1 TRP A   2      94.120  21.633   3.862  0.00  0.00    -0.352 N 
ATOM     32  HE1 TRP A   2      93.374  22.352   3.953  0.00  0.00    +0.166 HD
ATOM     33  CD1 TRP A   2      94.543  21.042   2.674  0.00  0.00    +0.068 A 
ENDBRANCH  23  24
ENDBRANCH  20  23
ENDBRANCH   2  20
TORSDOF 10
REMARK  Name = ../refined-set-2016/4cu7/4cu7_pocket.pdb
REMARK  158 active torsions:
REMARK  status: ('A' for Active; 'I' for Inactive)
REMARK    1  A    between atoms: _1  and  _3
REMARK    2  A    between atoms: _3  and  _4
REMARK    3  A    between atoms: _3  and  _6
REMARK    4  A    between atoms: _6  and  _7
REMARK    5  A    between atoms: _7  and  _8
REMARK    6  A    between atoms: _11  and  _13
REMARK    7  A    between atoms: _13  and  _14
REMARK    8  A    between atoms: _13  and  _16
REMARK    9  A    between atoms: _16  and  _17
REMARK   10  A    between atoms: _17  and  _18
REMARK   11  A    between atoms: _18  and  _19
REMARK   12  A    between atoms: _28  and  _30
REMARK   13  A    between atoms: _30  and  _31
REMARK   14  A    between atoms: _30  and  _33
REMARK   15  A    between atoms: _33  and  _34
REMARK   16  A    between atoms: _44  and  _46
REMARK   17  A    between atoms: _46  and  _47
REMARK   18  A    between atoms: _46  and  _49
REMARK   19  A    between atoms: _49  and  _50
REMARK   20  A    between atoms: _52  and  _54
REMARK   21  A    between atoms: _54  and  _55
REMARK   22  A    between atoms: _54  and  _57
REMARK   23  A    between atoms: _57  and  _58
REMARK   24  A    between atoms: _63  and  _65
REMARK   25  A    between atoms: _65  and  _66
REMARK   26  A    between atoms: _65  and  _68
REMARK   27  A    between atoms: _68  and  _69
REMARK   28  A    between atoms: _69  and  _70
REMARK   29  A    between atoms: _70  and  _71
REMARK   30  A    between atoms: _80  and  _82
REMARK   31  A    between atoms: _82  and  _83
REMARK   32  A    between atoms: _82  and  _85
REMARK   33  A    between atoms: _85  and  _86
REMARK   34  A    between atoms: _89  and  _91
REMARK   35  A    between atoms: _91  and  _92
REMARK   36  A    between atoms: _91  and  _94
REMARK   37  A    between atoms: _94  and  _95
REMARK   38  A    between atoms: _100  and  _102
REMARK   39  A    between atoms: _102  and  _103
REMARK   40  A    between atoms: _102  and  _105
REMARK   41  A    between atoms: _105  and  _106
REMARK   42  A    between atoms: _106  and  _107
REMARK   43  A    between atoms: _110  and  _112
REMARK   44  A    between atoms: _112  and  _113
REMARK   45  A    between atoms: _112  and  _115
REMARK   46  A    between atoms: _115  and  _116
REMARK   47  A    between atoms: _119  and  _121
REMARK   48  A    between atoms: _121  and  _122
REMARK   49  A    between atoms: _121  and  _124
REMARK   50  A    between atoms: _124  and  _125
REMARK   51  A    between atoms: _125  and  _126
REMARK   52  A    between atoms: _126  and  _127
REMARK   53  A    between atoms: _127  and  _128
REMARK   54  A    between atoms: _132  and  _134
REMARK   55  A    between atoms: _134  and  _135
REMARK   56  A    between atoms: _134  and  _137
REMARK   57  A    between atoms: _137  and  _138
REMARK   58  A    between atoms: _143  and  _145
REMARK   59  A    between atoms: _145  and  _146
REMARK   60  A    between atoms: _145  and  _148
REMARK   61  A    between atoms: _148  and  _149
REMARK   62  A    between atoms: _149  and  _150
REMARK   63  A    between atoms: _153  and  _155
REMARK   64  A    between atoms: _155  and  _156
REMARK   65  A    between atoms: _158  and  _160
REMARK   66  A    between atoms: _160  and  _161
REMARK   67  A    between atoms: _160  and  _163
REMARK   68  A    between atoms: _163  and  _164
REMARK   69  A    between atoms: _167  and  _169
REMARK   70  A    between atoms: _169  and  _170
REMARK   71  A    between atoms: _169  and  _172
REMARK   72  A    between atoms: _172  and  _173
REMARK   73  A    between atoms: _173  and  _174
REMARK   74  A    between atoms: _174  and  _175
REMARK   75  A    between atoms: _184  and  _186
REMARK   76  A    between atoms: _186  and  _187
REMARK   77  A    between atoms: _186  and  _189
REMARK   78  A    between atoms: _189  and  _190
REMARK   79  A    between atoms: _195  and  _197
REMARK   80  A    between atoms: _197  and  _198
REMARK   81  A    between atoms: _197  and  _200
REMARK   82  A    between atoms: _200  and  _201
REMARK   83  A    between atoms: _206  and  _207
REMARK   84  A    between atoms: _209  and  _211
REMARK   85  A    between atoms: _211  and  _212
REMARK   86  A    between atoms: _211  and  _214
REMARK   87  A    between atoms: _214  and  _215
REMARK   88  A    between atoms: _215  and  _216
REMARK   89  A    between atoms: _219  and  _221
REMARK   90  A    between atoms: _221  and  _222
REMARK   91  A    between atoms: _221  and  _224
REMARK   92  A    between atoms: _224  and  _225
REMARK   93  A    between atoms: _228  and  _230
REMARK   94  A    between atoms: _230  and  _231
REMARK   95  A    between atoms: _230  and  _233
REMARK   96  A    between atoms: _233  and  _234
REMARK   97  A    between atoms: _236  and  _238
REMARK   98  A    between atoms: _238  and  _239
REMARK   99  A    between atoms: _238  and  _241
REMARK  100  A    between atoms: _241  and  _242
REMARK  101  A    between atoms: _244  and  _246
REMARK  102  A    between atoms: _246  and  _247
REMARK  103  A    between atoms: _250  and  _252
REMARK  104  A    between atoms: _252  and  _253
REMARK  105  A    between atoms: _252  and  _255
REMARK  106  A    between atoms: _255  and  _256
REMARK  107  A    between atoms: _259  and  _261
REMARK  108  A    between atoms: _261  and  _262
REMARK  109  A    between atoms: _261  and  _264
REMARK  110  A    between atoms: _264  and  _265
REMARK  111  A    between atoms: _270  and  _272
REMARK  112  A    between atoms: _272  and  _273
REMARK  113  A    between atoms: _272  and  _275
REMARK  114  A    between atoms: _278  and  _280
REMARK  115  A    between atoms: _280  and  _281
REMARK  116  A    between atoms: _283  and  _285
REMARK  117  A    between atoms: _285  and  _286
REMARK  118  A    between atoms: _285  and  _288
REMARK  119  A    between atoms: _288  and  _289
REMARK  120  A    between atoms: _299  and  _301
REMARK  121  A    between atoms: _301  and  _302
REMARK  122  A    between atoms: _304  and  _306
REMARK  123  A    between atoms: _306  and  _307
REMARK  124  A    between atoms: _306  and  _309
REMARK  125  A    between atoms: _309  and  _310
REMARK  126  A    between atoms: _310  and  _311
REMARK  127  A    between atoms: _311  and  _312
REMARK  128  A    between atoms: _312  and  _313
REMARK  129  A    between atoms: _317  and  _319
REMARK  130  A    between atoms: _319  and  _320
REMARK  131  A    between atoms: _319  and  _322
REMARK  132  A    between atoms: _322  and  _323
REMARK  133  A    between atoms: _333  and  _335
REMARK  134  A    between atoms: _335  and  _336
REMARK  135  A    between atoms: _335  and  _338
REMARK  136  A    between atoms: _338  and  _339
REMARK  137  A    between atoms: _342  and  _344
REMARK  138  A    between atoms: _344  and  _345
REMARK  139  A    between atoms: _344  and  _347
REMARK  140  A    between atoms: _347  and  _348
REMARK  141  A    between atoms: _353  and  _354
REMARK  142  A    between atoms: _356  and  _358
REMARK  143  A    between atoms: _358  and  _359
REMARK  144  A    between atoms: _358  and  _361
REMARK  145  A    between atoms: _361  and  _362
REMARK  146  A    between atoms: _362  and  _363
REMARK  147  A    between atoms: _366  and  _368
REMARK  148  A    between atoms: _368  and  _369
REMARK  149  A    between atoms: _368  and  _371
REMARK  150  A    between atoms: _371  and  _372
REMARK  151  A    between atoms: _375  and  _377
REMARK  152  A    between atoms: _377  and  _378
REMARK  153  A    between atoms: _377  and  _380
REMARK  154  A    between atoms: _380  and  _381
REMARK  155  A    between atoms: _386  and  _388
REMARK  156  A    between atoms: _388  and  _389
REMARK  157  A    between atoms: _388  and  _391
REMARK  158  A    between atoms: _391  and  _392
REMARK                            x       y       z     vdW  Elec       q    Type
REMARK                         _______ _______ _______ _____ _____    ______ ____
ROOT
ATOM      1  CA  SER A   1      88.517  11.649   6.242  0.00  0.00    +0.163 C 
ENDROOT
BRANCH   1   2
ATOM      2  N   SER A   1      87.922  10.346   6.073  0.00  0.00    -0.237 NA
ATOM      3  H   SER A   1      88.532   9.555   5.782  0.00  0.00    +0.142 HD
ENDBRANCH   1   2
BRANCH   1   4
ATOM      4  C   SER A   1      88.338  12.398   4.928  0.00  0.00    +0.227 C 
ATOM      5  O   SER A   1      88.549  11.812   3.859  0.00  0.00    -0.287 OA
ENDBRANCH   1   4
BRANCH   1   6
ATOM      6  CB  SER A   1      90.014  11.513   6.560  0.00  0.00    +0.162 C 
BRANCH   6   7
ATOM      7  OG  SER A   1      90.227  10.833   7.800  0.00  0.00    -0.380 OA
ATOM      8  H   SER A   1      89.833   9.926   7.750  0.00  0.00    +0.211 HD
ENDBRANCH   6   7
ENDBRANCH   1   6
TORSDOF 4
REMARK  Name = ../refined-set-2016/4cu7/4cu7_pocket.pdb
REMARK  158 active torsions:
REMARK  status: ('A' for Active; 'I' for Inactive)
REMARK    1  A    between atoms: _1  and  _3
REMARK    2  A    between atoms: _3  and  _4
REMARK    3  A    between atoms: _3  and  _6
REMARK    4  A    between atoms: _6  and  _7
REMARK    5  A    between atoms: _7  and  _8
REMARK    6  A    between atoms: _11  and  _13
REMARK    7  A    between atoms: _13  and  _14
REMARK    8  A    between atoms: _13  and  _16
REMARK    9  A    between atoms: _16  and  _17
REMARK   10  A    between atoms: _17  and  _18
REMARK   11  A    between atoms: _18  and  _19
REMARK   12  A    between atoms: _28  and  _30
REMARK   13  A    between atoms: _30  and  _31
REMARK   14  A    between atoms: _30  and  _33
REMARK   15  A    between atoms: _33  and  _34
REMARK   16  A    between atoms: _44  and  _46
REMARK   17  A    between atoms: _46  and  _47
REMARK   18  A    between atoms: _46  and  _49
REMARK   19  A    between atoms: _49  and  _50
REMARK   20  A    between atoms: _52  and  _54
REMARK   21  A    between atoms: _54  and  _55
REMARK   22  A    between atoms: _54  and  _57
REMARK   23  A    between atoms: _57  and  _58
REMARK   24  A    between atoms: _63  and  _65
REMARK   25  A    between atoms: _65  and  _66
REMARK   26  A    between atoms: _65  and  _68
REMARK   27  A    between atoms: _68  and  _69
REMARK   28  A    between atoms: _69  and  _70
REMARK   29  A    between atoms: _70  and  _71
REMARK   30  A    between atoms: _80  and  _82
REMARK   31  A    between atoms: _82  and  _83
REMARK   32  A    between atoms: _82  and  _85
REMARK   33  A    between atoms: _85  and  _86
REMARK   34  A    between atoms: _89  and  _91
REMARK   35  A    between atoms: _91  and  _92
REMARK   36  A    between atoms: _91  and  _94
REMARK   37  A    between atoms: _94  and  _95
REMARK   38  A    between atoms: _100  and  _102
REMARK   39  A    between atoms: _102  and  _103
REMARK   40  A    between atoms: _102  and  _105
REMARK   41  A    between atoms: _105  and  _106
REMARK   42  A    between atoms: _106  and  _107
REMARK   43  A    between atoms: _110  and  _112
REMARK   44  A    between atoms: _112  and  _113
REMARK   45  A    between atoms: _112  and  _115
REMARK   46  A    between atoms: _115  and  _116
REMARK   47  A    between atoms: _119  and  _121
REMARK   48  A    between atoms: _121  and  _122
REMARK   49  A    between atoms: _121  and  _124
REMARK   50  A    between atoms: _124  and  _125
REMARK   51  A    between atoms: _125  and  _126
REMARK   52  A    between atoms: _126  and  _127
REMARK   53  A    between atoms: _127  and  _128
REMARK   54  A    between atoms: _132  and  _134
REMARK   55  A    between atoms: _134  and  _135
REMARK   56  A    between atoms: _134  and  _137
REMARK   57  A    between atoms: _137  and  _138
REMARK   58  A    between atoms: _143  and  _145
REMARK   59  A    between atoms: _145  and  _146
REMARK   60  A    between atoms: _145  and  _148
REMARK   61  A    between atoms: _148  and  _149
REMARK   62  A    between atoms: _149  and  _150
REMARK   63  A    between atoms: _153  and  _155
REMARK   64  A    between atoms: _155  and  _156
REMARK   65  A    between atoms: _158  and  _160
REMARK   66  A    between atoms: _160  and  _161
REMARK   67  A    between atoms: _160  and  _163
REMARK   68  A    between atoms: _163  and  _164
REMARK   69  A    between atoms: _167  and  _169
REMARK   70  A    between atoms: _169  and  _170
REMARK   71  A    between atoms: _169  and  _172
REMARK   72  A    between atoms: _172  and  _173
REMARK   73  A    between atoms: _173  and  _174
REMARK   74  A    between atoms: _174  and  _175
REMARK   75  A    between atoms: _184  and  _186
REMARK   76  A    between atoms: _186  and  _187
REMARK   77  A    between atoms: _186  and  _189
REMARK   78  A    between atoms: _189  and  _190
REMARK   79  A    between atoms: _195  and  _197
REMARK   80  A    between atoms: _197  and  _198
REMARK   81  A    between atoms: _197  and  _200
REMARK   82  A    between atoms: _200  and  _201
REMARK   83  A    between atoms: _206  and  _207
REMARK   84  A    between atoms: _209  and  _211
REMARK   85  A    between atoms: _211  and  _212
REMARK   86  A    between atoms: _211  and  _214
REMARK   87  A    between atoms: _214  and  _215
REMARK   88  A    between atoms: _215  and  _216
REMARK   89  A    between atoms: _219  and  _221
REMARK   90  A    between atoms: _221  and  _222
REMARK   91  A    between atoms: _221  and  _224
REMARK   92  A    between atoms: _224  and  _225
REMARK   93  A    between atoms: _228  and  _230
REMARK   94  A    between atoms: _230  and  _231
REMARK   95  A    between atoms: _230  and  _233
REMARK   96  A    between atoms: _233  and  _234
REMARK   97  A    between atoms: _236  and  _238
REMARK   98  A    between atoms: _238  and  _239
REMARK   99  A    between atoms: _238  and  _241
REMARK  100  A    between atoms: _241  and  _242
REMARK  101  A    between atoms: _244  and  _246
REMARK  102  A    between atoms: _246  and  _247
REMARK  103  A    between atoms: _250  and  _252
REMARK  104  A    between atoms: _252  and  _253
REMARK  105  A    between atoms: _252  and  _255
REMARK  106  A    between atoms: _255  and  _256
REMARK  107  A    between atoms: _259  and  _261
REMARK  108  A    between atoms: _261  and  _262
REMARK  109  A    between atoms: _261  and  _264
REMARK  110  A    between atoms: _264  and  _265
REMARK  111  A    between atoms: _270  and  _272
REMARK  112  A    between atoms: _272  and  _273
REMARK  113  A    between atoms: _272  and  _275
REMARK  114  A    between atoms: _278  and  _280
REMARK  115  A    between atoms: _280  and  _281
REMARK  116  A    between atoms: _283  and  _285
REMARK  117  A    between atoms: _285  and  _286
REMARK  118  A    between atoms: _285  and  _288
REMARK  119  A    between atoms: _288  and  _289
REMARK  120  A    between atoms: _299  and  _301
REMARK  121  A    between atoms: _301  and  _302
REMARK  122  A    between atoms: _304  and  _306
REMARK  123  A    between atoms: _306  and  _307
REMARK  124  A    between atoms: _306  and  _309
REMARK  125  A    between atoms: _309  and  _310
REMARK  126  A    between atoms: _310  and  _311
REMARK  127  A    between atoms: _311  and  _312
REMARK  128  A    between atoms: _312  and  _313
REMARK  129  A    between atoms: _317  and  _319
REMARK  130  A    between atoms: _319  and  _320
REMARK  131  A    between atoms: _319  and  _322
REMARK  132  A    between atoms: _322  and  _323
REMARK  133  A    between atoms: _333  and  _335
REMARK  134  A    between atoms: _335  and  _336
REMARK  135  A    between atoms: _335  and  _338
REMARK  136  A    between atoms: _338  and  _339
REMARK  137  A    between atoms: _342  and  _344
REMARK  138  A    between atoms: _344  and  _345
REMARK  139  A    between atoms: _344  and  _347
REMARK  140  A    between atoms: _347  and  _348
REMARK  141  A    between atoms: _353  and  _354
REMARK  142  A    between atoms: _356  and  _358
REMARK  143  A    between atoms: _358  and  _359
REMARK  144  A    between atoms: _358  and  _361
REMARK  145  A    between atoms: _361  and  _362
REMARK  146  A    between atoms: _362  and  _363
REMARK  147  A    between atoms: _366  and  _368
REMARK  148  A    between atoms: _368  and  _369
REMARK  149  A    between atoms: _368  and  _371
REMARK  150  A    between atoms: _371  and  _372
REMARK  151  A    between atoms: _375  and  _377
REMARK  152  A    between atoms: _377  and  _378
REMARK  153  A    between atoms: _377  and  _380
REMARK  154  A    between atoms: _380  and  _381
REMARK  155  A    between atoms: _386  and  _388
REMARK  156  A    between atoms: _388  and  _389
REMARK  157  A    between atoms: _388  and  _391
REMARK  158  A    between atoms: _391  and  _392
REMARK                            x       y       z     vdW  Elec       q    Type
REMARK                         _______ _______ _______ _____ _____    ______ ____
ROOT
ATOM      1  CB  HIS A   1      91.058  17.581   1.938  0.00  0.00    +0.072 C 
ENDROOT
BRANCH   1   2
ATOM      2  CG  HIS A   1      92.294  17.418   2.778  0.00  0.00    +0.082 A 
ATOM      3  ND1 HIS A   1      92.573  18.262   3.844  0.00  0.00    -0.227 NA
ATOM      4  CE1 HIS A   1      93.710  17.899   4.416  0.00  0.00    +0.199 A 
ATOM      5  NE2 HIS A   1      94.190  16.855   3.758  0.00  0.00    -0.221 NA
ATOM      6  CD2 HIS A   1      93.327  16.537   2.719  0.00  0.00    +0.115 A 
ENDBRANCH   1   2
BRANCH   1   7
ATOM      7  CA  HIS A   1      89.749  17.575   2.777  0.00  0.00    +0.139 C 
BRANCH   7   8
ATOM      8  N   HIS A   1      89.232  16.224   2.917  0.00  0.00    -0.239 NA
ATOM      9  H   HIS A   1      89.448  15.522   2.180  0.00  0.00    +0.142 HD
ENDBRANCH   7   8
BRANCH   7  10
ATOM     10  C   HIS A   1      88.666  18.436   2.160  0.00  0.00    +0.224 C 
ATOM     11  O   HIS A   1      87.665  17.926   1.662  0.00  0.00    -0.287 OA
ENDBRANCH   7  10
ENDBRANCH   1   7
TORSDOF 4
REMARK  Name = ../refined-set-2016/4cu7/4cu7_pocket.pdb
REMARK  158 active torsions:
REMARK  status: ('A' for Active; 'I' for Inactive)
REMARK    1  A    between atoms: _1  and  _3
REMARK    2  A    between atoms: _3  and  _4
REMARK    3  A    between atoms: _3  and  _6
REMARK    4  A    between atoms: _6  and  _7
REMARK    5  A    between atoms: _7  and  _8
REMARK    6  A    between atoms: _11  and  _13
REMARK    7  A    between atoms: _13  and  _14
REMARK    8  A    between atoms: _13  and  _16
REMARK    9  A    between atoms: _16  and  _17
REMARK   10  A    between atoms: _17  and  _18
REMARK   11  A    between atoms: _18  and  _19
REMARK   12  A    between atoms: _28  and  _30
REMARK   13  A    between atoms: _30  and  _31
REMARK   14  A    between atoms: _30  and  _33
REMARK   15  A    between atoms: _33  and  _34
REMARK   16  A    between atoms: _44  and  _46
REMARK   17  A    between atoms: _46  and  _47
REMARK   18  A    between atoms: _46  and  _49
REMARK   19  A    between atoms: _49  and  _50
REMARK   20  A    between atoms: _52  and  _54
REMARK   21  A    between atoms: _54  and  _55
REMARK   22  A    between atoms: _54  and  _57
REMARK   23  A    between atoms: _57  and  _58
REMARK   24  A    between atoms: _63  and  _65
REMARK   25  A    between atoms: _65  and  _66
REMARK   26  A    between atoms: _65  and  _68
REMARK   27  A    between atoms: _68  and  _69
REMARK   28  A    between atoms: _69  and  _70
REMARK   29  A    between atoms: _70  and  _71
REMARK   30  A    between atoms: _80  and  _82
REMARK   31  A    between atoms: _82  and  _83
REMARK   32  A    between atoms: _82  and  _85
REMARK   33  A    between atoms: _85  and  _86
REMARK   34  A    between atoms: _89  and  _91
REMARK   35  A    between atoms: _91  and  _92
REMARK   36  A    between atoms: _91  and  _94
REMARK   37  A    between atoms: _94  and  _95
REMARK   38  A    between atoms: _100  and  _102
REMARK   39  A    between atoms: _102  and  _103
REMARK   40  A    between atoms: _102  and  _105
REMARK   41  A    between atoms: _105  and  _106
REMARK   42  A    between atoms: _106  and  _107
REMARK   43  A    between atoms: _110  and  _112
REMARK   44  A    between atoms: _112  and  _113
REMARK   45  A    between atoms: _112  and  _115
REMARK   46  A    between atoms: _115  and  _116
REMARK   47  A    between atoms: _119  and  _121
REMARK   48  A    between atoms: _121  and  _122
REMARK   49  A    between atoms: _121  and  _124
REMARK   50  A    between atoms: _124  and  _125
REMARK   51  A    between atoms: _125  and  _126
REMARK   52  A    between atoms: _126  and  _127
REMARK   53  A    between atoms: _127  and  _128
REMARK   54  A    between atoms: _132  and  _134
REMARK   55  A    between atoms: _134  and  _135
REMARK   56  A    between atoms: _134  and  _137
REMARK   57  A    between atoms: _137  and  _138
REMARK   58  A    between atoms: _143  and  _145
REMARK   59  A    between atoms: _145  and  _146
REMARK   60  A    between atoms: _145  and  _148
REMARK   61  A    between atoms: _148  and  _149
REMARK   62  A    between atoms: _149  and  _150
REMARK   63  A    between atoms: _153  and  _155
REMARK   64  A    between atoms: _155  and  _156
REMARK   65  A    between atoms: _158  and  _160
REMARK   66  A    between atoms: _160  and  _161
REMARK   67  A    between atoms: _160  and  _163
REMARK   68  A    between atoms: _163  and  _164
REMARK   69  A    between atoms: _167  and  _169
REMARK   70  A    between atoms: _169  and  _170
REMARK   71  A    between atoms: _169  and  _172
REMARK   72  A    between atoms: _172  and  _173
REMARK   73  A    between atoms: _173  and  _174
REMARK   74  A    between atoms: _174  and  _175
REMARK   75  A    between atoms: _184  and  _186
REMARK   76  A    between atoms: _186  and  _187
REMARK   77  A    between atoms: _186  and  _189
REMARK   78  A    between atoms: _189  and  _190
REMARK   79  A    between atoms: _195  and  _197
REMARK   80  A    between atoms: _197  and  _198
REMARK   81  A    between atoms: _197  and  _200
REMARK   82  A    between atoms: _200  and  _201
REMARK   83  A    between atoms: _206  and  _207
REMARK   84  A    between atoms: _209  and  _211
REMARK   85  A    between atoms: _211  and  _212
REMARK   86  A    between atoms: _211  and  _214
REMARK   87  A    between atoms: _214  and  _215
REMARK   88  A    between atoms: _215  and  _216
REMARK   89  A    between atoms: _219  and  _221
REMARK   90  A    between atoms: _221  and  _222
REMARK   91  A    between atoms: _221  and  _224
REMARK   92  A    between atoms: _224  and  _225
REMARK   93  A    between atoms: _228  and  _230
REMARK   94  A    between atoms: _230  and  _231
REMARK   95  A    between atoms: _230  and  _233
REMARK   96  A    between atoms: _233  and  _234
REMARK   97  A    between atoms: _236  and  _238
REMARK   98  A    between atoms: _238  and  _239
REMARK   99  A    between atoms: _238  and  _241
REMARK  100  A    between atoms: _241  and  _242
REMARK  101  A    between atoms: _244  and  _246
REMARK  102  A    between atoms: _246  and  _247
REMARK  103  A    between atoms: _250  and  _252
REMARK  104  A    between atoms: _252  and  _253
REMARK  105  A    between atoms: _252  and  _255
REMARK  106  A    between atoms: _255  and  _256
REMARK  107  A    between atoms: _259  and  _261
REMARK  108  A    between atoms: _261  and  _262
REMARK  109  A    between atoms: _261  and  _264
REMARK  110  A    between atoms: _264  and  _265
REMARK  111  A    between atoms: _270  and  _272
REMARK  112  A    between atoms: _272  and  _273
REMARK  113  A    between atoms: _272  and  _275
REMARK  114  A    between atoms: _278  and  _280
REMARK  115  A    between atoms: _280  and  _281
REMARK  116  A    between atoms: _283  and  _285
REMARK  117  A    between atoms: _285  and  _286
REMARK  118  A    between atoms: _285  and  _288
REMARK  119  A    between atoms: _288  and  _289
REMARK  120  A    between atoms: _299  and  _301
REMARK  121  A    between atoms: _301  and  _302
REMARK  122  A    between atoms: _304  and  _306
REMARK  123  A    between atoms: _306  and  _307
REMARK  124  A    between atoms: _306  and  _309
REMARK  125  A    between atoms: _309  and  _310
REMARK  126  A    between atoms: _310  and  _311
REMARK  127  A    between atoms: _311  and  _312
REMARK  128  A    between atoms: _312  and  _313
REMARK  129  A    between atoms: _317  and  _319
REMARK  130  A    between atoms: _319  and  _320
REMARK  131  A    between atoms: _319  and  _322
REMARK  132  A    between atoms: _322  and  _323
REMARK  133  A    between atoms: _333  and  _335
REMARK  134  A    between atoms: _335  and  _336
REMARK  135  A    between atoms: _335  and  _338
REMARK  136  A    between atoms: _338  and  _339
REMARK  137  A    between atoms: _342  and  _344
REMARK  138  A    between atoms: _344  and  _345
REMARK  139  A    between atoms: _344  and  _347
REMARK  140  A    between atoms: _347  and  _348
REMARK  141  A    between atoms: _353  and  _354
REMARK  142  A    between atoms: _356  and  _358
REMARK  143  A    between atoms: _358  and  _359
REMARK  144  A    between atoms: _358  and  _361
REMARK  145  A    between atoms: _361  and  _362
REMARK  146  A    between atoms: _362  and  _363
REMARK  147  A    between atoms: _366  and  _368
REMARK  148  A    between atoms: _368  and  _369
REMARK  149  A    between atoms: _368  and  _371
REMARK  150  A    between atoms: _371  and  _372
REMARK  151  A    between atoms: _375  and  _377
REMARK  152  A    between atoms: _377  and  _378
REMARK  153  A    between atoms: _377  and  _380
REMARK  154  A    between atoms: _380  and  _381
REMARK  155  A    between atoms: _386  and  _388
REMARK  156  A    between atoms: _388  and  _389
REMARK  157  A    between atoms: _388  and  _391
REMARK  158  A    between atoms: _391  and  _392
REMARK                            x       y       z     vdW  Elec       q    Type
REMARK                         _______ _______ _______ _____ _____    ______ ____
ROOT
ATOM      1  NE  ARG A   1      90.543  12.953  12.195  0.00  0.00    -0.265 N 
ATOM      2  HE  ARG A   1      90.264  13.619  12.943  0.00  0.00    +0.259 HD
ATOM      3  CZ  ARG A   1      91.846  12.815  11.949  0.00  0.00    +0.342 C 
ATOM      4  NH2 ARG A   1      92.704  13.567  12.614  0.00  0.00    -0.292 N 
ATOM      5 HH21 ARG A   1      92.359  14.253  13.316  0.00  0.00    +0.255 HD
ATOM      6 HH22 ARG A   1      93.724  13.474  12.436  0.00  0.00    +0.255 HD
ATOM      7  NH1 ARG A   1      92.302  11.931  11.050  0.00  0.00    -0.292 N 
ATOM      8 HH11 ARG A   1      93.324  11.844  10.878  0.00  0.00    +0.255 HD
ATOM      9 HH12 ARG A   1      91.634  11.332  10.525  0.00  0.00    +0.255 HD
ENDROOT
BRANCH   1  10
ATOM     10  CD  ARG A   1      89.477  12.240  11.494  0.00  0.00    +0.174 C 
BRANCH  10  11
ATOM     11  CG  ARG A   1      88.346  13.234  11.175  0.00  0.00    +0.045 C 
BRANCH  11  12
ATOM     12  CB  ARG A   1      87.334  12.631  10.215  0.00  0.00    +0.029 C 
BRANCH  12  13
ATOM     13  CA  ARG A   1      86.161  13.555   9.859  0.00  0.00    +0.133 C 
BRANCH  13  14
ATOM     14  N   ARG A   1      85.224  12.804   9.060  0.00  0.00    -0.239 NA
ATOM     15  H   ARG A   1      85.555  12.413   8.155  0.00  0.00    +0.142 HD
ENDBRANCH  13  14
BRANCH  13  16
ATOM     16  C   ARG A   1      86.645  14.735   8.998  0.00  0.00    +0.224 C 
ATOM     17  O   ARG A   1      87.125  14.527   7.875  0.00  0.00    -0.287 OA
ENDBRANCH  13  16
ENDBRANCH  12  13
ENDBRANCH  11  12
ENDBRANCH  10  11
ENDBRANCH   1  10
TORSDOF 6
REMARK  Name = ../refined-set-2016/4cu7/4cu7_pocket.pdb
REMARK  158 active torsions:
REMARK  status: ('A' for Active; 'I' for Inactive)
REMARK    1  A    between atoms: _1  and  _3
REMARK    2  A    between atoms: _3  and  _4
REMARK    3  A    between atoms: _3  and  _6
REMARK    4  A    between atoms: _6  and  _7
REMARK    5  A    between atoms: _7  and  _8
REMARK    6  A    between atoms: _11  and  _13
REMARK    7  A    between atoms: _13  and  _14
REMARK    8  A    between atoms: _13  and  _16
REMARK    9  A    between atoms: _16  and  _17
REMARK   10  A    between atoms: _17  and  _18
REMARK   11  A    between atoms: _18  and  _19
REMARK   12  A    between atoms: _28  and  _30
REMARK   13  A    between atoms: _30  and  _31
REMARK   14  A    between atoms: _30  and  _33
REMARK   15  A    between atoms: _33  and  _34
REMARK   16  A    between atoms: _44  and  _46
REMARK   17  A    between atoms: _46  and  _47
REMARK   18  A    between atoms: _46  and  _49
REMARK   19  A    between atoms: _49  and  _50
REMARK   20  A    between atoms: _52  and  _54
REMARK   21  A    between atoms: _54  and  _55
REMARK   22  A    between atoms: _54  and  _57
REMARK   23  A    between atoms: _57  and  _58
REMARK   24  A    between atoms: _63  and  _65
REMARK   25  A    between atoms: _65  and  _66
REMARK   26  A    between atoms: _65  and  _68
REMARK   27  A    between atoms: _68  and  _69
REMARK   28  A    between atoms: _69  and  _70
REMARK   29  A    between atoms: _70  and  _71
REMARK   30  A    between atoms: _80  and  _82
REMARK   31  A    between atoms: _82  and  _83
REMARK   32  A    between atoms: _82  and  _85
REMARK   33  A    between atoms: _85  and  _86
REMARK   34  A    between atoms: _89  and  _91
REMARK   35  A    between atoms: _91  and  _92
REMARK   36  A    between atoms: _91  and  _94
REMARK   37  A    between atoms: _94  and  _95
REMARK   38  A    between atoms: _100  and  _102
REMARK   39  A    between atoms: _102  and  _103
REMARK   40  A    between atoms: _102  and  _105
REMARK   41  A    between atoms: _105  and  _106
REMARK   42  A    between atoms: _106  and  _107
REMARK   43  A    between atoms: _110  and  _112
REMARK   44  A    between atoms: _112  and  _113
REMARK   45  A    between atoms: _112  and  _115
REMARK   46  A    between atoms: _115  and  _116
REMARK   47  A    between atoms: _119  and  _121
REMARK   48  A    between atoms: _121  and  _122
REMARK   49  A    between atoms: _121  and  _124
REMARK   50  A    between atoms: _124  and  _125
REMARK   51  A    between atoms: _125  and  _126
REMARK   52  A    between atoms: _126  and  _127
REMARK   53  A    between atoms: _127  and  _128
REMARK   54  A    between atoms: _132  and  _134
REMARK   55  A    between atoms: _134  and  _135
REMARK   56  A    between atoms: _134  and  _137
REMARK   57  A    between atoms: _137  and  _138
REMARK   58  A    between atoms: _143  and  _145
REMARK   59  A    between atoms: _145  and  _146
REMARK   60  A    between atoms: _145  and  _148
REMARK   61  A    between atoms: _148  and  _149
REMARK   62  A    between atoms: _149  and  _150
REMARK   63  A    between atoms: _153  and  _155
REMARK   64  A    between atoms: _155  and  _156
REMARK   65  A    between atoms: _158  and  _160
REMARK   66  A    between atoms: _160  and  _161
REMARK   67  A    between atoms: _160  and  _163
REMARK   68  A    between atoms: _163  and  _164
REMARK   69  A    between atoms: _167  and  _169
REMARK   70  A    between atoms: _169  and  _170
REMARK   71  A    between atoms: _169  and  _172
REMARK   72  A    between atoms: _172  and  _173
REMARK   73  A    between atoms: _173  and  _174
REMARK   74  A    between atoms: _174  and  _175
REMARK   75  A    between atoms: _184  and  _186
REMARK   76  A    between atoms: _186  and  _187
REMARK   77  A    between atoms: _186  and  _189
REMARK   78  A    between atoms: _189  and  _190
REMARK   79  A    between atoms: _195  and  _197
REMARK   80  A    between atoms: _197  and  _198
REMARK   81  A    between atoms: _197  and  _200
REMARK   82  A    between atoms: _200  and  _201
REMARK   83  A    between atoms: _206  and  _207
REMARK   84  A    between atoms: _209  and  _211
REMARK   85  A    between atoms: _211  and  _212
REMARK   86  A    between atoms: _211  and  _214
REMARK   87  A    between atoms: _214  and  _215
REMARK   88  A    between atoms: _215  and  _216
REMARK   89  A    between atoms: _219  and  _221
REMARK   90  A    between atoms: _221  and  _222
REMARK   91  A    between atoms: _221  and  _224
REMARK   92  A    between atoms: _224  and  _225
REMARK   93  A    between atoms: _228  and  _230
REMARK   94  A    between atoms: _230  and  _231
REMARK   95  A    between atoms: _230  and  _233
REMARK   96  A    between atoms: _233  and  _234
REMARK   97  A    between atoms: _236  and  _238
REMARK   98  A    between atoms: _238  and  _239
REMARK   99  A    between atoms: _238  and  _241
REMARK  100  A    between atoms: _241  and  _242
REMARK  101  A    between atoms: _244  and  _246
REMARK  102  A    between atoms: _246  and  _247
REMARK  103  A    between atoms: _250  and  _252
REMARK  104  A    between atoms: _252  and  _253
REMARK  105  A    between atoms: _252  and  _255
REMARK  106  A    between atoms: _255  and  _256
REMARK  107  A    between atoms: _259  and  _261
REMARK  108  A    between atoms: _261  and  _262
REMARK  109  A    between atoms: _261  and  _264
REMARK  110  A    between atoms: _264  and  _265
REMARK  111  A    between atoms: _270  and  _272
REMARK  112  A    between atoms: _272  and  _273
REMARK  113  A    between atoms: _272  and  _275
REMARK  114  A    between atoms: _278  and  _280
REMARK  115  A    between atoms: _280  and  _281
REMARK  116  A    between atoms: _283  and  _285
REMARK  117  A    between atoms: _285  and  _286
REMARK  118  A    between atoms: _285  and  _288
REMARK  119  A    between atoms: _288  and  _289
REMARK  120  A    between atoms: _299  and  _301
REMARK  121  A    between atoms: _301  and  _302
REMARK  122  A    between atoms: _304  and  _306
REMARK  123  A    between atoms: _306  and  _307
REMARK  124  A    between atoms: _306  and  _309
REMARK  125  A    between atoms: _309  and  _310
REMARK  126  A    between atoms: _310  and  _311
REMARK  127  A    between atoms: _311  and  _312
REMARK  128  A    between atoms: _312  and  _313
REMARK  129  A    between atoms: _317  and  _319
REMARK  130  A    between atoms: _319  and  _320
REMARK  131  A    between atoms: _319  and  _322
REMARK  132  A    between atoms: _322  and  _323
REMARK  133  A    between atoms: _333  and  _335
REMARK  134  A    between atoms: _335  and  _336
REMARK  135  A    between atoms: _335  and  _338
REMARK  136  A    between atoms: _338  and  _339
REMARK  137  A    between atoms: _342  and  _344
REMARK  138  A    between atoms: _344  and  _345
REMARK  139  A    between atoms: _344  and  _347
REMARK  140  A    between atoms: _347  and  _348
REMARK  141  A    between atoms: _353  and  _354
REMARK  142  A    between atoms: _356  and  _358
REMARK  143  A    between atoms: _358  and  _359
REMARK  144  A    between atoms: _358  and  _361
REMARK  145  A    between atoms: _361  and  _362
REMARK  146  A    between atoms: _362  and  _363
REMARK  147  A    between atoms: _366  and  _368
REMARK  148  A    between atoms: _368  and  _369
REMARK  149  A    between atoms: _368  and  _371
REMARK  150  A    between atoms: _371  and  _372
REMARK  151  A    between atoms: _375  and  _377
REMARK  152  A    between atoms: _377  and  _378
REMARK  153  A    between atoms: _377  and  _380
REMARK  154  A    between atoms: _380  and  _381
REMARK  155  A    between atoms: _386  and  _388
REMARK  156  A    between atoms: _388  and  _389
REMARK  157  A    between atoms: _388  and  _391
REMARK  158  A    between atoms: _391  and  _392
REMARK                            x       y       z     vdW  Elec       q    Type
REMARK                         _______ _______ _______ _____ _____    ______ ____
ROOT
ATOM      1  C   THR A   1      91.226  17.839   7.500  0.00  0.00    +0.241 C 
ATOM      2  N   HIS A   2      91.918  18.779   8.142  0.00  0.00    -0.298 N 
ATOM      3  H   HIS A   2      92.336  19.540   7.569  0.00  0.00    +0.150 HD
ATOM      4  O   THR A   1      90.997  17.929   6.289  0.00  0.00    -0.274 OA
ENDROOT
BRANCH   1   5
ATOM      5  CA  THR A   1      90.642  16.657   8.310  0.00  0.00    +0.172 C 
BRANCH   5   6
ATOM      6  N   THR A   1      89.184  16.654   8.149  0.00  0.00    -0.236 NA
ATOM      7  H   THR A   1      88.767  16.022   7.436  0.00  0.00    +0.142 HD
ENDBRANCH   5   6
BRANCH   5   8
ATOM      8  CB  THR A   1      91.206  15.325   7.768  0.00  0.00    +0.135 C 
ATOM      9  CG2 THR A   1      90.834  14.165   8.661  0.00  0.00    +0.034 C 
BRANCH   8  10
ATOM     10  OG1 THR A   1      90.673  15.077   6.461  0.00  0.00    -0.383 OA
ATOM     11  HG1 THR A   1      90.931  15.816   5.855  0.00  0.00    +0.210 HD
ENDBRANCH   8  10
ENDBRANCH   5   8
ENDBRANCH   1   5
BRANCH   2  12
ATOM     12  CA  HIS A   2      92.139  18.827   9.595  0.00  0.00    +0.143 C 
BRANCH  12  13
ATOM     13  C   HIS A   2      91.857  20.274   9.979  0.00  0.00    +0.227 C 
ATOM     14  O   HIS A   2      92.777  21.051  10.269  0.00  0.00    -0.286 OA
ENDBRANCH  12  13
BRANCH  12  15
ATOM     15  CB  HIS A   2      93.591  18.463   9.966  0.00  0.00    +0.075 C 
BRANCH  15  16
ATOM     16  CG  HIS A   2      94.066  17.159   9.404  0.00  0.00    +0.082 A 
ATOM     17  ND1 HIS A   2      93.683  15.939   9.915  0.00  0.00    -0.227 NA
ATOM     18  CE1 HIS A   2      94.237  14.974   9.207  0.00  0.00    +0.199 A 
ATOM     19  NE2 HIS A   2      94.945  15.524   8.233  0.00  0.00    -0.221 NA
ATOM     20  CD2 HIS A   2      94.848  16.889   8.332  0.00  0.00    +0.115 A 
ENDBRANCH  15  16
ENDBRANCH  12  15
ENDBRANCH   2  12
TORSDOF 8
REMARK  Name = ../refined-set-2016/4cu7/4cu7_pocket.pdb
REMARK  158 active torsions:
REMARK  status: ('A' for Active; 'I' for Inactive)
REMARK    1  A    between atoms: _1  and  _3
REMARK    2  A    between atoms: _3  and  _4
REMARK    3  A    between atoms: _3  and  _6
REMARK    4  A    between atoms: _6  and  _7
REMARK    5  A    between atoms: _7  and  _8
REMARK    6  A    between atoms: _11  and  _13
REMARK    7  A    between atoms: _13  and  _14
REMARK    8  A    between atoms: _13  and  _16
REMARK    9  A    between atoms: _16  and  _17
REMARK   10  A    between atoms: _17  and  _18
REMARK   11  A    between atoms: _18  and  _19
REMARK   12  A    between atoms: _28  and  _30
REMARK   13  A    between atoms: _30  and  _31
REMARK   14  A    between atoms: _30  and  _33
REMARK   15  A    between atoms: _33  and  _34
REMARK   16  A    between atoms: _44  and  _46
REMARK   17  A    between atoms: _46  and  _47
REMARK   18  A    between atoms: _46  and  _49
REMARK   19  A    between atoms: _49  and  _50
REMARK   20  A    between atoms: _52  and  _54
REMARK   21  A    between atoms: _54  and  _55
REMARK   22  A    between atoms: _54  and  _57
REMARK   23  A    between atoms: _57  and  _58
REMARK   24  A    between atoms: _63  and  _65
REMARK   25  A    between atoms: _65  and  _66
REMARK   26  A    between atoms: _65  and  _68
REMARK   27  A    between atoms: _68  and  _69
REMARK   28  A    between atoms: _69  and  _70
REMARK   29  A    between atoms: _70  and  _71
REMARK   30  A    between atoms: _80  and  _82
REMARK   31  A    between atoms: _82  and  _83
REMARK   32  A    between atoms: _82  and  _85
REMARK   33  A    between atoms: _85  and  _86
REMARK   34  A    between atoms: _89  and  _91
REMARK   35  A    between atoms: _91  and  _92
REMARK   36  A    between atoms: _91  and  _94
REMARK   37  A    between atoms: _94  and  _95
REMARK   38  A    between atoms: _100  and  _102
REMARK   39  A    between atoms: _102  and  _103
REMARK   40  A    between atoms: _102  and  _105
REMARK   41  A    between atoms: _105  and  _106
REMARK   42  A    between atoms: _106  and  _107
REMARK   43  A    between atoms: _110  and  _112
REMARK   44  A    between atoms: _112  and  _113
REMARK   45  A    between atoms: _112  and  _115
REMARK   46  A    between atoms: _115  and  _116
REMARK   47  A    between atoms: _119  and  _121
REMARK   48  A    between atoms: _121  and  _122
REMARK   49  A    between atoms: _121  and  _124
REMARK   50  A    between atoms: _124  and  _125
REMARK   51  A    between atoms: _125  and  _126
REMARK   52  A    between atoms: _126  and  _127
REMARK   53  A    between atoms: _127  and  _128
REMARK   54  A    between atoms: _132  and  _134
REMARK   55  A    between atoms: _134  and  _135
REMARK   56  A    between atoms: _134  and  _137
REMARK   57  A    between atoms: _137  and  _138
REMARK   58  A    between atoms: _143  and  _145
REMARK   59  A    between atoms: _145  and  _146
REMARK   60  A    between atoms: _145  and  _148
REMARK   61  A    between atoms: _148  and  _149
REMARK   62  A    between atoms: _149  and  _150
REMARK   63  A    between atoms: _153  and  _155
REMARK   64  A    between atoms: _155  and  _156
REMARK   65  A    between atoms: _158  and  _160
REMARK   66  A    between atoms: _160  and  _161
REMARK   67  A    between atoms: _160  and  _163
REMARK   68  A    between atoms: _163  and  _164
REMARK   69  A    between atoms: _167  and  _169
REMARK   70  A    between atoms: _169  and  _170
REMARK   71  A    between atoms: _169  and  _172
REMARK   72  A    between atoms: _172  and  _173
REMARK   73  A    between atoms: _173  and  _174
REMARK   74  A    between atoms: _174  and  _175
REMARK   75  A    between atoms: _184  and  _186
REMARK   76  A    between atoms: _186  and  _187
REMARK   77  A    between atoms: _186  and  _189
REMARK   78  A    between atoms: _189  and  _190
REMARK   79  A    between atoms: _195  and  _197
REMARK   80  A    between atoms: _197  and  _198
REMARK   81  A    between atoms: _197  and  _200
REMARK   82  A    between atoms: _200  and  _201
REMARK   83  A    between atoms: _206  and  _207
REMARK   84  A    between atoms: _209  and  _211
REMARK   85  A    between atoms: _211  and  _212
REMARK   86  A    between atoms: _211  and  _214
REMARK   87  A    between atoms: _214  and  _215
REMARK   88  A    between atoms: _215  and  _216
REMARK   89  A    between atoms: _219  and  _221
REMARK   90  A    between atoms: _221  and  _222
REMARK   91  A    between atoms: _221  and  _224
REMARK   92  A    between atoms: _224  and  _225
REMARK   93  A    between atoms: _228  and  _230
REMARK   94  A    between atoms: _230  and  _231
REMARK   95  A    between atoms: _230  and  _233
REMARK   96  A    between atoms: _233  and  _234
REMARK   97  A    between atoms: _236  and  _238
REMARK   98  A    between atoms: _238  and  _239
REMARK   99  A    between atoms: _238  and  _241
REMARK  100  A    between atoms: _241  and  _242
REMARK  101  A    between atoms: _244  and  _246
REMARK  102  A    between atoms: _246  and  _247
REMARK  103  A    between atoms: _250  and  _252
REMARK  104  A    between atoms: _252  and  _253
REMARK  105  A    between atoms: _252  and  _255
REMARK  106  A    between atoms: _255  and  _256
REMARK  107  A    between atoms: _259  and  _261
REMARK  108  A    between atoms: _261  and  _262
REMARK  109  A    between atoms: _261  and  _264
REMARK  110  A    between atoms: _264  and  _265
REMARK  111  A    between atoms: _270  and  _272
REMARK  112  A    between atoms: _272  and  _273
REMARK  113  A    between atoms: _272  and  _275
REMARK  114  A    between atoms: _278  and  _280
REMARK  115  A    between atoms: _280  and  _281
REMARK  116  A    between atoms: _283  and  _285
REMARK  117  A    between atoms: _285  and  _286
REMARK  118  A    between atoms: _285  and  _288
REMARK  119  A    between atoms: _288  and  _289
REMARK  120  A    between atoms: _299  and  _301
REMARK  121  A    between atoms: _301  and  _302
REMARK  122  A    between atoms: _304  and  _306
REMARK  123  A    between atoms: _306  and  _307
REMARK  124  A    between atoms: _306  and  _309
REMARK  125  A    between atoms: _309  and  _310
REMARK  126  A    between atoms: _310  and  _311
REMARK  127  A    between atoms: _311  and  _312
REMARK  128  A    between atoms: _312  and  _313
REMARK  129  A    between atoms: _317  and  _319
REMARK  130  A    between atoms: _319  and  _320
REMARK  131  A    between atoms: _319  and  _322
REMARK  132  A    between atoms: _322  and  _323
REMARK  133  A    between atoms: _333  and  _335
REMARK  134  A    between atoms: _335  and  _336
REMARK  135  A    between atoms: _335  and  _338
REMARK  136  A    between atoms: _338  and  _339
REMARK  137  A    between atoms: _342  and  _344
REMARK  138  A    between atoms: _344  and  _345
REMARK  139  A    between atoms: _344  and  _347
REMARK  140  A    between atoms: _347  and  _348
REMARK  141  A    between atoms: _353  and  _354
REMARK  142  A    between atoms: _356  and  _358
REMARK  143  A    between atoms: _358  and  _359
REMARK  144  A    between atoms: _358  and  _361
REMARK  145  A    between atoms: _361  and  _362
REMARK  146  A    between atoms: _362  and  _363
REMARK  147  A    between atoms: _366  and  _368
REMARK  148  A    between atoms: _368  and  _369
REMARK  149  A    between atoms: _368  and  _371
REMARK  150  A    between atoms: _371  and  _372
REMARK  151  A    between atoms: _375  and  _377
REMARK  152  A    between atoms: _377  and  _378
REMARK  153  A    between atoms: _377  and  _380
REMARK  154  A    between atoms: _380  and  _381
REMARK  155  A    between atoms: _386  and  _388
REMARK  156  A    between atoms: _388  and  _389
REMARK  157  A    between atoms: _388  and  _391
REMARK  158  A    between atoms: _391  and  _392
REMARK                            x       y       z     vdW  Elec       q    Type
REMARK                         _______ _______ _______ _____ _____    ______ ____
ROOT
ATOM      1  CA  GLU A   1      88.733  18.969  13.835  0.00  0.00    +0.134 C 
ENDROOT
BRANCH   1   2
ATOM      2  N   GLU A   1      87.374  18.866  13.313  0.00  0.00    -0.239 NA
ATOM      3  H   GLU A   1      87.219  18.990  12.292  0.00  0.00    +0.142 HD
ENDBRANCH   1   2
BRANCH   1   4
ATOM      4  C   GLU A   1      89.250  20.405  13.806  0.00  0.00    +0.224 C 
ATOM      5  O   GLU A   1      89.236  21.056  12.773  0.00  0.00    -0.287 OA
ENDBRANCH   1   4
BRANCH   1   6
ATOM      6  CB  GLU A   1      89.659  18.077  13.017  0.00  0.00    +0.037 C 
BRANCH   6   7
ATOM      7  CG  GLU A   1      91.081  17.978  13.584  0.00  0.00    +0.116 C 
BRANCH   7   8
ATOM      8  CD  GLU A   1      91.758  16.717  13.116  0.00  0.00    +0.365 C 
ATOM      9  OE2 GLU A   1      92.127  15.849  13.968  0.00  0.00    -0.246 OA
ATOM     10  OE1 GLU A   1      91.922  16.598  11.889  0.00  0.00    -0.246 OA
ENDBRANCH   7   8
ENDBRANCH   6   7
ENDBRANCH   1   6
TORSDOF 5
REMARK  Name = ../refined-set-2016/4cu7/4cu7_pocket.pdb
REMARK  158 active torsions:
REMARK  status: ('A' for Active; 'I' for Inactive)
REMARK    1  A    between atoms: _1  and  _3
REMARK    2  A    between atoms: _3  and  _4
REMARK    3  A    between atoms: _3  and  _6
REMARK    4  A    between atoms: _6  and  _7
REMARK    5  A    between atoms: _7  and  _8
REMARK    6  A    between atoms: _11  and  _13
REMARK    7  A    between atoms: _13  and  _14
REMARK    8  A    between atoms: _13  and  _16
REMARK    9  A    between atoms: _16  and  _17
REMARK   10  A    between atoms: _17  and  _18
REMARK   11  A    between atoms: _18  and  _19
REMARK   12  A    between atoms: _28  and  _30
REMARK   13  A    between atoms: _30  and  _31
REMARK   14  A    between atoms: _30  and  _33
REMARK   15  A    between atoms: _33  and  _34
REMARK   16  A    between atoms: _44  and  _46
REMARK   17  A    between atoms: _46  and  _47
REMARK   18  A    between atoms: _46  and  _49
REMARK   19  A    between atoms: _49  and  _50
REMARK   20  A    between atoms: _52  and  _54
REMARK   21  A    between atoms: _54  and  _55
REMARK   22  A    between atoms: _54  and  _57
REMARK   23  A    between atoms: _57  and  _58
REMARK   24  A    between atoms: _63  and  _65
REMARK   25  A    between atoms: _65  and  _66
REMARK   26  A    between atoms: _65  and  _68
REMARK   27  A    between atoms: _68  and  _69
REMARK   28  A    between atoms: _69  and  _70
REMARK   29  A    between atoms: _70  and  _71
REMARK   30  A    between atoms: _80  and  _82
REMARK   31  A    between atoms: _82  and  _83
REMARK   32  A    between atoms: _82  and  _85
REMARK   33  A    between atoms: _85  and  _86
REMARK   34  A    between atoms: _89  and  _91
REMARK   35  A    between atoms: _91  and  _92
REMARK   36  A    between atoms: _91  and  _94
REMARK   37  A    between atoms: _94  and  _95
REMARK   38  A    between atoms: _100  and  _102
REMARK   39  A    between atoms: _102  and  _103
REMARK   40  A    between atoms: _102  and  _105
REMARK   41  A    between atoms: _105  and  _106
REMARK   42  A    between atoms: _106  and  _107
REMARK   43  A    between atoms: _110  and  _112
REMARK   44  A    between atoms: _112  and  _113
REMARK   45  A    between atoms: _112  and  _115
REMARK   46  A    between atoms: _115  and  _116
REMARK   47  A    between atoms: _119  and  _121
REMARK   48  A    between atoms: _121  and  _122
REMARK   49  A    between atoms: _121  and  _124
REMARK   50  A    between atoms: _124  and  _125
REMARK   51  A    between atoms: _125  and  _126
REMARK   52  A    between atoms: _126  and  _127
REMARK   53  A    between atoms: _127  and  _128
REMARK   54  A    between atoms: _132  and  _134
REMARK   55  A    between atoms: _134  and  _135
REMARK   56  A    between atoms: _134  and  _137
REMARK   57  A    between atoms: _137  and  _138
REMARK   58  A    between atoms: _143  and  _145
REMARK   59  A    between atoms: _145  and  _146
REMARK   60  A    between atoms: _145  and  _148
REMARK   61  A    between atoms: _148  and  _149
REMARK   62  A    between atoms: _149  and  _150
REMARK   63  A    between atoms: _153  and  _155
REMARK   64  A    between atoms: _155  and  _156
REMARK   65  A    between atoms: _158  and  _160
REMARK   66  A    between atoms: _160  and  _161
REMARK   67  A    between atoms: _160  and  _163
REMARK   68  A    between atoms: _163  and  _164
REMARK   69  A    between atoms: _167  and  _169
REMARK   70  A    between atoms: _169  and  _170
REMARK   71  A    between atoms: _169  and  _172
REMARK   72  A    between atoms: _172  and  _173
REMARK   73  A    between atoms: _173  and  _174
REMARK   74  A    between atoms: _174  and  _175
REMARK   75  A    between atoms: _184  and  _186
REMARK   76  A    between atoms: _186  and  _187
REMARK   77  A    between atoms: _186  and  _189
REMARK   78  A    between atoms: _189  and  _190
REMARK   79  A    between atoms: _195  and  _197
REMARK   80  A    between atoms: _197  and  _198
REMARK   81  A    between atoms: _197  and  _200
REMARK   82  A    between atoms: _200  and  _201
REMARK   83  A    between atoms: _206  and  _207
REMARK   84  A    between atoms: _209  and  _211
REMARK   85  A    between atoms: _211  and  _212
REMARK   86  A    between atoms: _211  and  _214
REMARK   87  A    between atoms: _214  and  _215
REMARK   88  A    between atoms: _215  and  _216
REMARK   89  A    between atoms: _219  and  _221
REMARK   90  A    between atoms: _221  and  _222
REMARK   91  A    between atoms: _221  and  _224
REMARK   92  A    between atoms: _224  and  _225
REMARK   93  A    between atoms: _228  and  _230
REMARK   94  A    between atoms: _230  and  _231
REMARK   95  A    between atoms: _230  and  _233
REMARK   96  A    between atoms: _233  and  _234
REMARK   97  A    between atoms: _236  and  _238
REMARK   98  A    between atoms: _238  and  _239
REMARK   99  A    between atoms: _238  and  _241
REMARK  100  A    between atoms: _241  and  _242
REMARK  101  A    between atoms: _244  and  _246
REMARK  102  A    between atoms: _246  and  _247
REMARK  103  A    between atoms: _250  and  _252
REMARK  104  A    between atoms: _252  and  _253
REMARK  105  A    between atoms: _252  and  _255
REMARK  106  A    between atoms: _255  and  _256
REMARK  107  A    between atoms: _259  and  _261
REMARK  108  A    between atoms: _261  and  _262
REMARK  109  A    between atoms: _261  and  _264
REMARK  110  A    between atoms: _264  and  _265
REMARK  111  A    between atoms: _270  and  _272
REMARK  112  A    between atoms: _272  and  _273
REMARK  113  A    between atoms: _272  and  _275
REMARK  114  A    between atoms: _278  and  _280
REMARK  115  A    between atoms: _280  and  _281
REMARK  116  A    between atoms: _283  and  _285
REMARK  117  A    between atoms: _285  and  _286
REMARK  118  A    between atoms: _285  and  _288
REMARK  119  A    between atoms: _288  and  _289
REMARK  120  A    between atoms: _299  and  _301
REMARK  121  A    between atoms: _301  and  _302
REMARK  122  A    between atoms: _304  and  _306
REMARK  123  A    between atoms: _306  and  _307
REMARK  124  A    between atoms: _306  and  _309
REMARK  125  A    between atoms: _309  and  _310
REMARK  126  A    between atoms: _310  and  _311
REMARK  127  A    between atoms: _311  and  _312
REMARK  128  A    between atoms: _312  and  _313
REMARK  129  A    between atoms: _317  and  _319
REMARK  130  A    between atoms: _319  and  _320
REMARK  131  A    between atoms: _319  and  _322
REMARK  132  A    between atoms: _322  and  _323
REMARK  133  A    between atoms: _333  and  _335
REMARK  134  A    between atoms: _335  and  _336
REMARK  135  A    between atoms: _335  and  _338
REMARK  136  A    between atoms: _338  and  _339
REMARK  137  A    between atoms: _342  and  _344
REMARK  138  A    between atoms: _344  and  _345
REMARK  139  A    between atoms: _344  and  _347
REMARK  140  A    between atoms: _347  and  _348
REMARK  141  A    between atoms: _353  and  _354
REMARK  142  A    between atoms: _356  and  _358
REMARK  143  A    between atoms: _358  and  _359
REMARK  144  A    between atoms: _358  and  _361
REMARK  145  A    between atoms: _361  and  _362
REMARK  146  A    between atoms: _362  and  _363
REMARK  147  A    between atoms: _366  and  _368
REMARK  148  A    between atoms: _368  and  _369
REMARK  149  A    between atoms: _368  and  _371
REMARK  150  A    between atoms: _371  and  _372
REMARK  151  A    between atoms: _375  and  _377
REMARK  152  A    between atoms: _377  and  _378
REMARK  153  A    between atoms: _377  and  _380
REMARK  154  A    between atoms: _380  and  _381
REMARK  155  A    between atoms: _386  and  _388
REMARK  156  A    between atoms: _388  and  _389
REMARK  157  A    between atoms: _388  and  _391
REMARK  158  A    between atoms: _391  and  _392
REMARK                            x       y       z     vdW  Elec       q    Type
REMARK                         _______ _______ _______ _____ _____    ______ ____
ROOT
ATOM      1  CA  ASP A   1      96.612  20.373  12.379  0.00  0.00    +0.144 C 
ENDROOT
BRANCH   1   2
ATOM      2  N   ASP A   1      95.580  21.216  12.941  0.00  0.00    -0.239 NA
ATOM      3  H   ASP A   1      95.509  22.199  12.610  0.00  0.00    +0.142 HD
ENDBRANCH   1   2
BRANCH   1   4
ATOM      4  C   ASP A   1      97.957  20.548  13.092  0.00  0.00    +0.225 C 
ATOM      5  O   ASP A   1      98.893  19.778  12.866  0.00  0.00    -0.287 OA
ENDBRANCH   1   4
BRANCH   1   6
ATOM      6  CB  ASP A   1      96.784  20.641  10.877  0.00  0.00    +0.139 C 
BRANCH   6   7
ATOM      7  CG  ASP A   1      97.676  19.591  10.195  0.00  0.00    +0.367 C 
ATOM      8  OD2 ASP A   1      97.485  18.364  10.373  0.00  0.00    -0.246 OA
ATOM      9  OD1 ASP A   1      98.592  20.002   9.457  0.00  0.00    -0.246 OA
ENDBRANCH   6   7
ENDBRANCH   1   6
TORSDOF 4
REMARK  Name = ../refined-set-2016/4cu7/4cu7_pocket.pdb
REMARK  158 active torsions:
REMARK  status: ('A' for Active; 'I' for Inactive)
REMARK    1  A    between atoms: _1  and  _3
REMARK    2  A    between atoms: _3  and  _4
REMARK    3  A    between atoms: _3  and  _6
REMARK    4  A    between atoms: _6  and  _7
REMARK    5  A    between atoms: _7  and  _8
REMARK    6  A    between atoms: _11  and  _13
REMARK    7  A    between atoms: _13  and  _14
REMARK    8  A    between atoms: _13  and  _16
REMARK    9  A    between atoms: _16  and  _17
REMARK   10  A    between atoms: _17  and  _18
REMARK   11  A    between atoms: _18  and  _19
REMARK   12  A    between atoms: _28  and  _30
REMARK   13  A    between atoms: _30  and  _31
REMARK   14  A    between atoms: _30  and  _33
REMARK   15  A    between atoms: _33  and  _34
REMARK   16  A    between atoms: _44  and  _46
REMARK   17  A    between atoms: _46  and  _47
REMARK   18  A    between atoms: _46  and  _49
REMARK   19  A    between atoms: _49  and  _50
REMARK   20  A    between atoms: _52  and  _54
REMARK   21  A    between atoms: _54  and  _55
REMARK   22  A    between atoms: _54  and  _57
REMARK   23  A    between atoms: _57  and  _58
REMARK   24  A    between atoms: _63  and  _65
REMARK   25  A    between atoms: _65  and  _66
REMARK   26  A    between atoms: _65  and  _68
REMARK   27  A    between atoms: _68  and  _69
REMARK   28  A    between atoms: _69  and  _70
REMARK   29  A    between atoms: _70  and  _71
REMARK   30  A    between atoms: _80  and  _82
REMARK   31  A    between atoms: _82  and  _83
REMARK   32  A    between atoms: _82  and  _85
REMARK   33  A    between atoms: _85  and  _86
REMARK   34  A    between atoms: _89  and  _91
REMARK   35  A    between atoms: _91  and  _92
REMARK   36  A    between atoms: _91  and  _94
REMARK   37  A    between atoms: _94  and  _95
REMARK   38  A    between atoms: _100  and  _102
REMARK   39  A    between atoms: _102  and  _103
REMARK   40  A    between atoms: _102  and  _105
REMARK   41  A    between atoms: _105  and  _106
REMARK   42  A    between atoms: _106  and  _107
REMARK   43  A    between atoms: _110  and  _112
REMARK   44  A    between atoms: _112  and  _113
REMARK   45  A    between atoms: _112  and  _115
REMARK   46  A    between atoms: _115  and  _116
REMARK   47  A    between atoms: _119  and  _121
REMARK   48  A    between atoms: _121  and  _122
REMARK   49  A    between atoms: _121  and  _124
REMARK   50  A    between atoms: _124  and  _125
REMARK   51  A    between atoms: _125  and  _126
REMARK   52  A    between atoms: _126  and  _127
REMARK   53  A    between atoms: _127  and  _128
REMARK   54  A    between atoms: _132  and  _134
REMARK   55  A    between atoms: _134  and  _135
REMARK   56  A    between atoms: _134  and  _137
REMARK   57  A    between atoms: _137  and  _138
REMARK   58  A    between atoms: _143  and  _145
REMARK   59  A    between atoms: _145  and  _146
REMARK   60  A    between atoms: _145  and  _148
REMARK   61  A    between atoms: _148  and  _149
REMARK   62  A    between atoms: _149  and  _150
REMARK   63  A    between atoms: _153  and  _155
REMARK   64  A    between atoms: _155  and  _156
REMARK   65  A    between atoms: _158  and  _160
REMARK   66  A    between atoms: _160  and  _161
REMARK   67  A    between atoms: _160  and  _163
REMARK   68  A    between atoms: _163  and  _164
REMARK   69  A    between atoms: _167  and  _169
REMARK   70  A    between atoms: _169  and  _170
REMARK   71  A    between atoms: _169  and  _172
REMARK   72  A    between atoms: _172  and  _173
REMARK   73  A    between atoms: _173  and  _174
REMARK   74  A    between atoms: _174  and  _175
REMARK   75  A    between atoms: _184  and  _186
REMARK   76  A    between atoms: _186  and  _187
REMARK   77  A    between atoms: _186  and  _189
REMARK   78  A    between atoms: _189  and  _190
REMARK   79  A    between atoms: _195  and  _197
REMARK   80  A    between atoms: _197  and  _198
REMARK   81  A    between atoms: _197  and  _200
REMARK   82  A    between atoms: _200  and  _201
REMARK   83  A    between atoms: _206  and  _207
REMARK   84  A    between atoms: _209  and  _211
REMARK   85  A    between atoms: _211  and  _212
REMARK   86  A    between atoms: _211  and  _214
REMARK   87  A    between atoms: _214  and  _215
REMARK   88  A    between atoms: _215  and  _216
REMARK   89  A    between atoms: _219  and  _221
REMARK   90  A    between atoms: _221  and  _222
REMARK   91  A    between atoms: _221  and  _224
REMARK   92  A    between atoms: _224  and  _225
REMARK   93  A    between atoms: _228  and  _230
REMARK   94  A    between atoms: _230  and  _231
REMARK   95  A    between atoms: _230  and  _233
REMARK   96  A    between atoms: _233  and  _234
REMARK   97  A    between atoms: _236  and  _238
REMARK   98  A    between atoms: _238  and  _239
REMARK   99  A    between atoms: _238  and  _241
REMARK  100  A    between atoms: _241  and  _242
REMARK  101  A    between atoms: _244  and  _246
REMARK  102  A    between atoms: _246  and  _247
REMARK  103  A    between atoms: _250  and  _252
REMARK  104  A    between atoms: _252  and  _253
REMARK  105  A    between atoms: _252  and  _255
REMARK  106  A    between atoms: _255  and  _256
REMARK  107  A    between atoms: _259  and  _261
REMARK  108  A    between atoms: _261  and  _262
REMARK  109  A    between atoms: _261  and  _264
REMARK  110  A    between atoms: _264  and  _265
REMARK  111  A    between atoms: _270  and  _272
REMARK  112  A    between atoms: _272  and  _273
REMARK  113  A    between atoms: _272  and  _275
REMARK  114  A    between atoms: _278  and  _280
REMARK  115  A    between atoms: _280  and  _281
REMARK  116  A    between atoms: _283  and  _285
REMARK  117  A    between atoms: _285  and  _286
REMARK  118  A    between atoms: _285  and  _288
REMARK  119  A    between atoms: _288  and  _289
REMARK  120  A    between atoms: _299  and  _301
REMARK  121  A    between atoms: _301  and  _302
REMARK  122  A    between atoms: _304  and  _306
REMARK  123  A    between atoms: _306  and  _307
REMARK  124  A    between atoms: _306  and  _309
REMARK  125  A    between atoms: _309  and  _310
REMARK  126  A    between atoms: _310  and  _311
REMARK  127  A    between atoms: _311  and  _312
REMARK  128  A    between atoms: _312  and  _313
REMARK  129  A    between atoms: _317  and  _319
REMARK  130  A    between atoms: _319  and  _320
REMARK  131  A    between atoms: _319  and  _322
REMARK  132  A    between atoms: _322  and  _323
REMARK  133  A    between atoms: _333  and  _335
REMARK  134  A    between atoms: _335  and  _336
REMARK  135  A    between atoms: _335  and  _338
REMARK  136  A    between atoms: _338  and  _339
REMARK  137  A    between atoms: _342  and  _344
REMARK  138  A    between atoms: _344  and  _345
REMARK  139  A    between atoms: _344  and  _347
REMARK  140  A    between atoms: _347  and  _348
REMARK  141  A    between atoms: _353  and  _354
REMARK  142  A    between atoms: _356  and  _358
REMARK  143  A    between atoms: _358  and  _359
REMARK  144  A    between atoms: _358  and  _361
REMARK  145  A    between atoms: _361  and  _362
REMARK  146  A    between atoms: _362  and  _363
REMARK  147  A    between atoms: _366  and  _368
REMARK  148  A    between atoms: _368  and  _369
REMARK  149  A    between atoms: _368  and  _371
REMARK  150  A    between atoms: _371  and  _372
REMARK  151  A    between atoms: _375  and  _377
REMARK  152  A    between atoms: _377  and  _378
REMARK  153  A    between atoms: _377  and  _380
REMARK  154  A    between atoms: _380  and  _381
REMARK  155  A    between atoms: _386  and  _388
REMARK  156  A    between atoms: _388  and  _389
REMARK  157  A    between atoms: _388  and  _391
REMARK  158  A    between atoms: _391  and  _392
REMARK                            x       y       z     vdW  Elec       q    Type
REMARK                         _______ _______ _______ _____ _____    ______ ____
ROOT
ATOM      1  CG  LYS A   1     102.797  19.932  11.497  0.00  0.00    -0.000 C 
ENDROOT
BRANCH   1   2
ATOM      2  CB  LYS A   1     103.339  20.722  10.309  0.00  0.00    +0.025 C 
BRANCH   2   3
ATOM      3  CA  LYS A   1     104.418  21.753  10.664  0.00  0.00    +0.133 C 
BRANCH   3   4
ATOM      4  N   LYS A   1     103.899  22.827  11.540  0.00  0.00    -0.239 NA
ATOM      5  H   LYS A   1     103.166  23.476  11.191  0.00  0.00    +0.142 HD
ENDBRANCH   3   4
BRANCH   3   6
ATOM      6  C   LYS A   1     105.009  22.367   9.390  0.00  0.00    +0.224 C 
ATOM      7  O   LYS A   1     105.974  21.877   8.858  0.00  0.00    -0.287 OA
ENDBRANCH   3   6
ENDBRANCH   2   3
ENDBRANCH   1   2
BRANCH   1   8
ATOM      8  CD  LYS A   1     101.764  18.901  11.050  0.00  0.00    -0.024 C 
BRANCH   8   9
ATOM      9  CE  LYS A   1     101.243  18.140  12.253  0.00  0.00    -0.086 C 
BRANCH   9  10
ATOM     10  NZ  LYS A   1      99.959  17.426  11.969  0.00  0.00    +0.380 N 
ATOM     11  HZ1 LYS A   1      99.647  16.922  12.824  0.00  0.00    -0.089 HD
ATOM     12  HZ2 LYS A   1      99.234  18.117  11.689  0.00  0.00    -0.089 HD
ATOM     13  HZ3 LYS A   1     100.106  16.744  11.198  0.00  0.00    -0.089 HD
ENDBRANCH   9  10
ENDBRANCH   8   9
ENDBRANCH   1   8
TORSDOF 7
REMARK  Name = ../refined-set-2016/4cu7/4cu7_pocket.pdb
REMARK  158 active torsions:
REMARK  status: ('A' for Active; 'I' for Inactive)
REMARK    1  A    between atoms: _1  and  _3
REMARK    2  A    between atoms: _3  and  _4
REMARK    3  A    between atoms: _3  and  _6
REMARK    4  A    between atoms: _6  and  _7
REMARK    5  A    between atoms: _7  and  _8
REMARK    6  A    between atoms: _11  and  _13
REMARK    7  A    between atoms: _13  and  _14
REMARK    8  A    between atoms: _13  and  _16
REMARK    9  A    between atoms: _16  and  _17
REMARK   10  A    between atoms: _17  and  _18
REMARK   11  A    between atoms: _18  and  _19
REMARK   12  A    between atoms: _28  and  _30
REMARK   13  A    between atoms: _30  and  _31
REMARK   14  A    between atoms: _30  and  _33
REMARK   15  A    between atoms: _33  and  _34
REMARK   16  A    between atoms: _44  and  _46
REMARK   17  A    between atoms: _46  and  _47
REMARK   18  A    between atoms: _46  and  _49
REMARK   19  A    between atoms: _49  and  _50
REMARK   20  A    between atoms: _52  and  _54
REMARK   21  A    between atoms: _54  and  _55
REMARK   22  A    between atoms: _54  and  _57
REMARK   23  A    between atoms: _57  and  _58
REMARK   24  A    between atoms: _63  and  _65
REMARK   25  A    between atoms: _65  and  _66
REMARK   26  A    between atoms: _65  and  _68
REMARK   27  A    between atoms: _68  and  _69
REMARK   28  A    between atoms: _69  and  _70
REMARK   29  A    between atoms: _70  and  _71
REMARK   30  A    between atoms: _80  and  _82
REMARK   31  A    between atoms: _82  and  _83
REMARK   32  A    between atoms: _82  and  _85
REMARK   33  A    between atoms: _85  and  _86
REMARK   34  A    between atoms: _89  and  _91
REMARK   35  A    between atoms: _91  and  _92
REMARK   36  A    between atoms: _91  and  _94
REMARK   37  A    between atoms: _94  and  _95
REMARK   38  A    between atoms: _100  and  _102
REMARK   39  A    between atoms: _102  and  _103
REMARK   40  A    between atoms: _102  and  _105
REMARK   41  A    between atoms: _105  and  _106
REMARK   42  A    between atoms: _106  and  _107
REMARK   43  A    between atoms: _110  and  _112
REMARK   44  A    between atoms: _112  and  _113
REMARK   45  A    between atoms: _112  and  _115
REMARK   46  A    between atoms: _115  and  _116
REMARK   47  A    between atoms: _119  and  _121
REMARK   48  A    between atoms: _121  and  _122
REMARK   49  A    between atoms: _121  and  _124
REMARK   50  A    between atoms: _124  and  _125
REMARK   51  A    between atoms: _125  and  _126
REMARK   52  A    between atoms: _126  and  _127
REMARK   53  A    between atoms: _127  and  _128
REMARK   54  A    between atoms: _132  and  _134
REMARK   55  A    between atoms: _134  and  _135
REMARK   56  A    between atoms: _134  and  _137
REMARK   57  A    between atoms: _137  and  _138
REMARK   58  A    between atoms: _143  and  _145
REMARK   59  A    between atoms: _145  and  _146
REMARK   60  A    between atoms: _145  and  _148
REMARK   61  A    between atoms: _148  and  _149
REMARK   62  A    between atoms: _149  and  _150
REMARK   63  A    between atoms: _153  and  _155
REMARK   64  A    between atoms: _155  and  _156
REMARK   65  A    between atoms: _158  and  _160
REMARK   66  A    between atoms: _160  and  _161
REMARK   67  A    between atoms: _160  and  _163
REMARK   68  A    between atoms: _163  and  _164
REMARK   69  A    between atoms: _167  and  _169
REMARK   70  A    between atoms: _169  and  _170
REMARK   71  A    between atoms: _169  and  _172
REMARK   72  A    between atoms: _172  and  _173
REMARK   73  A    between atoms: _173  and  _174
REMARK   74  A    between atoms: _174  and  _175
REMARK   75  A    between atoms: _184  and  _186
REMARK   76  A    between atoms: _186  and  _187
REMARK   77  A    between atoms: _186  and  _189
REMARK   78  A    between atoms: _189  and  _190
REMARK   79  A    between atoms: _195  and  _197
REMARK   80  A    between atoms: _197  and  _198
REMARK   81  A    between atoms: _197  and  _200
REMARK   82  A    between atoms: _200  and  _201
REMARK   83  A    between atoms: _206  and  _207
REMARK   84  A    between atoms: _209  and  _211
REMARK   85  A    between atoms: _211  and  _212
REMARK   86  A    between atoms: _211  and  _214
REMARK   87  A    between atoms: _214  and  _215
REMARK   88  A    between atoms: _215  and  _216
REMARK   89  A    between atoms: _219  and  _221
REMARK   90  A    between atoms: _221  and  _222
REMARK   91  A    between atoms: _221  and  _224
REMARK   92  A    between atoms: _224  and  _225
REMARK   93  A    between atoms: _228  and  _230
REMARK   94  A    between atoms: _230  and  _231
REMARK   95  A    between atoms: _230  and  _233
REMARK   96  A    between atoms: _233  and  _234
REMARK   97  A    between atoms: _236  and  _238
REMARK   98  A    between atoms: _238  and  _239
REMARK   99  A    between atoms: _238  and  _241
REMARK  100  A    between atoms: _241  and  _242
REMARK  101  A    between atoms: _244  and  _246
REMARK  102  A    between atoms: _246  and  _247
REMARK  103  A    between atoms: _250  and  _252
REMARK  104  A    between atoms: _252  and  _253
REMARK  105  A    between atoms: _252  and  _255
REMARK  106  A    between atoms: _255  and  _256
REMARK  107  A    between atoms: _259  and  _261
REMARK  108  A    between atoms: _261  and  _262
REMARK  109  A    between atoms: _261  and  _264
REMARK  110  A    between atoms: _264  and  _265
REMARK  111  A    between atoms: _270  and  _272
REMARK  112  A    between atoms: _272  and  _273
REMARK  113  A    between atoms: _272  and  _275
REMARK  114  A    between atoms: _278  and  _280
REMARK  115  A    between atoms: _280  and  _281
REMARK  116  A    between atoms: _283  and  _285
REMARK  117  A    between atoms: _285  and  _286
REMARK  118  A    between atoms: _285  and  _288
REMARK  119  A    between atoms: _288  and  _289
REMARK  120  A    between atoms: _299  and  _301
REMARK  121  A    between atoms: _301  and  _302
REMARK  122  A    between atoms: _304  and  _306
REMARK  123  A    between atoms: _306  and  _307
REMARK  124  A    between atoms: _306  and  _309
REMARK  125  A    between atoms: _309  and  _310
REMARK  126  A    between atoms: _310  and  _311
REMARK  127  A    between atoms: _311  and  _312
REMARK  128  A    between atoms: _312  and  _313
REMARK  129  A    between atoms: _317  and  _319
REMARK  130  A    between atoms: _319  and  _320
REMARK  131  A    between atoms: _319  and  _322
REMARK  132  A    between atoms: _322  and  _323
REMARK  133  A    between atoms: _333  and  _335
REMARK  134  A    between atoms: _335  and  _336
REMARK  135  A    between atoms: _335  and  _338
REMARK  136  A    between atoms: _338  and  _339
REMARK  137  A    between atoms: _342  and  _344
REMARK  138  A    between atoms: _344  and  _345
REMARK  139  A    between atoms: _344  and  _347
REMARK  140  A    between atoms: _347  and  _348
REMARK  141  A    between atoms: _353  and  _354
REMARK  142  A    between atoms: _356  and  _358
REMARK  143  A    between atoms: _358  and  _359
REMARK  144  A    between atoms: _358  and  _361
REMARK  145  A    between atoms: _361  and  _362
REMARK  146  A    between atoms: _362  and  _363
REMARK  147  A    between atoms: _366  and  _368
REMARK  148  A    between atoms: _368  and  _369
REMARK  149  A    between atoms: _368  and  _371
REMARK  150  A    between atoms: _371  and  _372
REMARK  151  A    between atoms: _375  and  _377
REMARK  152  A    between atoms: _377  and  _378
REMARK  153  A    between atoms: _377  and  _380
REMARK  154  A    between atoms: _380  and  _381
REMARK  155  A    between atoms: _386  and  _388
REMARK  156  A    between atoms: _388  and  _389
REMARK  157  A    between atoms: _388  and  _391
REMARK  158  A    between atoms: _391  and  _392
REMARK                            x       y       z     vdW  Elec       q    Type
REMARK                         _______ _______ _______ _____ _____    ______ ____
ROOT
ATOM      1  C   ASN A   1      97.344  15.610  14.190  0.00  0.00    +0.239 C 
ATOM      2  N   GLU A   2      97.832  14.422  14.553  0.00  0.00    -0.298 N 
ATOM      3  H   GLU A   2      97.160  13.698  14.879  0.00  0.00    +0.150 HD
ATOM      4  O   ASN A   1      98.049  16.566  13.826  0.00  0.00    -0.274 OA
ENDROOT
BRANCH   1   5
ATOM      5  CA  ASN A   1      95.790  15.724  14.243  0.00  0.00    +0.154 C 
BRANCH   5   6
ATOM      6  N   ASN A   1      95.341  16.836  15.071  0.00  0.00    -0.238 NA
ATOM      7  H   ASN A   1      95.535  17.805  14.748  0.00  0.00    +0.142 HD
ENDBRANCH   5   6
BRANCH   5   8
ATOM      8  CB  ASN A   1      95.275  15.891  12.820  0.00  0.00    +0.111 C 
BRANCH   8   9
ATOM      9  CG  ASN A   1      95.947  14.930  11.854  0.00  0.00    +0.221 C 
ATOM     10  OD1 ASN A   1      95.723  13.707  11.902  0.00  0.00    -0.275 OA
ATOM     11  ND2 ASN A   1      96.831  15.477  10.997  0.00  0.00    -0.329 N 
ATOM     12 HD21 ASN A   1      96.984  16.506  10.994  0.00  0.00    +0.145 HD
ATOM     13 HD22 ASN A   1      97.360  14.871  10.338  0.00  0.00    +0.145 HD
ENDBRANCH   8   9
ENDBRANCH   5   8
ENDBRANCH   1   5
BRANCH   2  14
ATOM     14  CA  GLU A   2      99.259  14.074  14.521  0.00  0.00    +0.137 C 
BRANCH  14  15
ATOM     15  C   GLU A   2     100.101  15.239  15.070  0.00  0.00    +0.227 C 
ATOM     16  O   GLU A   2     100.982  15.775  14.374  0.00  0.00    -0.286 OA
ENDBRANCH  14  15
BRANCH  14  17
ATOM     17  CB  GLU A   2      99.698  13.663  13.104  0.00  0.00    +0.039 C 
BRANCH  17  18
ATOM     18  CG  GLU A   2      98.934  12.438  12.607  0.00  0.00    +0.116 C 
BRANCH  18  19
ATOM     19  CD  GLU A   2      99.378  11.903  11.266  0.00  0.00    +0.365 C 
ATOM     20  OE2 GLU A   2      98.965  10.785  10.930  0.00  0.00    -0.246 OA
ATOM     21  OE1 GLU A   2     100.111  12.593  10.519  0.00  0.00    -0.246 OA
ENDBRANCH  18  19
ENDBRANCH  17  18
ENDBRANCH  14  17
ENDBRANCH   2  14
TORSDOF 9
REMARK  Name = ../refined-set-2016/4cu7/4cu7_pocket.pdb
REMARK  158 active torsions:
REMARK  status: ('A' for Active; 'I' for Inactive)
REMARK    1  A    between atoms: _1  and  _3
REMARK    2  A    between atoms: _3  and  _4
REMARK    3  A    between atoms: _3  and  _6
REMARK    4  A    between atoms: _6  and  _7
REMARK    5  A    between atoms: _7  and  _8
REMARK    6  A    between atoms: _11  and  _13
REMARK    7  A    between atoms: _13  and  _14
REMARK    8  A    between atoms: _13  and  _16
REMARK    9  A    between atoms: _16  and  _17
REMARK   10  A    between atoms: _17  and  _18
REMARK   11  A    between atoms: _18  and  _19
REMARK   12  A    between atoms: _28  and  _30
REMARK   13  A    between atoms: _30  and  _31
REMARK   14  A    between atoms: _30  and  _33
REMARK   15  A    between atoms: _33  and  _34
REMARK   16  A    between atoms: _44  and  _46
REMARK   17  A    between atoms: _46  and  _47
REMARK   18  A    between atoms: _46  and  _49
REMARK   19  A    between atoms: _49  and  _50
REMARK   20  A    between atoms: _52  and  _54
REMARK   21  A    between atoms: _54  and  _55
REMARK   22  A    between atoms: _54  and  _57
REMARK   23  A    between atoms: _57  and  _58
REMARK   24  A    between atoms: _63  and  _65
REMARK   25  A    between atoms: _65  and  _66
REMARK   26  A    between atoms: _65  and  _68
REMARK   27  A    between atoms: _68  and  _69
REMARK   28  A    between atoms: _69  and  _70
REMARK   29  A    between atoms: _70  and  _71
REMARK   30  A    between atoms: _80  and  _82
REMARK   31  A    between atoms: _82  and  _83
REMARK   32  A    between atoms: _82  and  _85
REMARK   33  A    between atoms: _85  and  _86
REMARK   34  A    between atoms: _89  and  _91
REMARK   35  A    between atoms: _91  and  _92
REMARK   36  A    between atoms: _91  and  _94
REMARK   37  A    between atoms: _94  and  _95
REMARK   38  A    between atoms: _100  and  _102
REMARK   39  A    between atoms: _102  and  _103
REMARK   40  A    between atoms: _102  and  _105
REMARK   41  A    between atoms: _105  and  _106
REMARK   42  A    between atoms: _106  and  _107
REMARK   43  A    between atoms: _110  and  _112
REMARK   44  A    between atoms: _112  and  _113
REMARK   45  A    between atoms: _112  and  _115
REMARK   46  A    between atoms: _115  and  _116
REMARK   47  A    between atoms: _119  and  _121
REMARK   48  A    between atoms: _121  and  _122
REMARK   49  A    between atoms: _121  and  _124
REMARK   50  A    between atoms: _124  and  _125
REMARK   51  A    between atoms: _125  and  _126
REMARK   52  A    between atoms: _126  and  _127
REMARK   53  A    between atoms: _127  and  _128
REMARK   54  A    between atoms: _132  and  _134
REMARK   55  A    between atoms: _134  and  _135
REMARK   56  A    between atoms: _134  and  _137
REMARK   57  A    between atoms: _137  and  _138
REMARK   58  A    between atoms: _143  and  _145
REMARK   59  A    between atoms: _145  and  _146
REMARK   60  A    between atoms: _145  and  _148
REMARK   61  A    between atoms: _148  and  _149
REMARK   62  A    between atoms: _149  and  _150
REMARK   63  A    between atoms: _153  and  _155
REMARK   64  A    between atoms: _155  and  _156
REMARK   65  A    between atoms: _158  and  _160
REMARK   66  A    between atoms: _160  and  _161
REMARK   67  A    between atoms: _160  and  _163
REMARK   68  A    between atoms: _163  and  _164
REMARK   69  A    between atoms: _167  and  _169
REMARK   70  A    between atoms: _169  and  _170
REMARK   71  A    between atoms: _169  and  _172
REMARK   72  A    between atoms: _172  and  _173
REMARK   73  A    between atoms: _173  and  _174
REMARK   74  A    between atoms: _174  and  _175
REMARK   75  A    between atoms: _184  and  _186
REMARK   76  A    between atoms: _186  and  _187
REMARK   77  A    between atoms: _186  and  _189
REMARK   78  A    between atoms: _189  and  _190
REMARK   79  A    between atoms: _195  and  _197
REMARK   80  A    between atoms: _197  and  _198
REMARK   81  A    between atoms: _197  and  _200
REMARK   82  A    between atoms: _200  and  _201
REMARK   83  A    between atoms: _206  and  _207
REMARK   84  A    between atoms: _209  and  _211
REMARK   85  A    between atoms: _211  and  _212
REMARK   86  A    between atoms: _211  and  _214
REMARK   87  A    between atoms: _214  and  _215
REMARK   88  A    between atoms: _215  and  _216
REMARK   89  A    between atoms: _219  and  _221
REMARK   90  A    between atoms: _221  and  _222
REMARK   91  A    between atoms: _221  and  _224
REMARK   92  A    between atoms: _224  and  _225
REMARK   93  A    between atoms: _228  and  _230
REMARK   94  A    between atoms: _230  and  _231
REMARK   95  A    between atoms: _230  and  _233
REMARK   96  A    between atoms: _233  and  _234
REMARK   97  A    between atoms: _236  and  _238
REMARK   98  A    between atoms: _238  and  _239
REMARK   99  A    between atoms: _238  and  _241
REMARK  100  A    between atoms: _241  and  _242
REMARK  101  A    between atoms: _244  and  _246
REMARK  102  A    between atoms: _246  and  _247
REMARK  103  A    between atoms: _250  and  _252
REMARK  104  A    between atoms: _252  and  _253
REMARK  105  A    between atoms: _252  and  _255
REMARK  106  A    between atoms: _255  and  _256
REMARK  107  A    between atoms: _259  and  _261
REMARK  108  A    between atoms: _261  and  _262
REMARK  109  A    between atoms: _261  and  _264
REMARK  110  A    between atoms: _264  and  _265
REMARK  111  A    between atoms: _270  and  _272
REMARK  112  A    between atoms: _272  and  _273
REMARK  113  A    between atoms: _272  and  _275
REMARK  114  A    between atoms: _278  and  _280
REMARK  115  A    between atoms: _280  and  _281
REMARK  116  A    between atoms: _283  and  _285
REMARK  117  A    between atoms: _285  and  _286
REMARK  118  A    between atoms: _285  and  _288
REMARK  119  A    between atoms: _288  and  _289
REMARK  120  A    between atoms: _299  and  _301
REMARK  121  A    between atoms: _301  and  _302
REMARK  122  A    between atoms: _304  and  _306
REMARK  123  A    between atoms: _306  and  _307
REMARK  124  A    between atoms: _306  and  _309
REMARK  125  A    between atoms: _309  and  _310
REMARK  126  A    between atoms: _310  and  _311
REMARK  127  A    between atoms: _311  and  _312
REMARK  128  A    between atoms: _312  and  _313
REMARK  129  A    between atoms: _317  and  _319
REMARK  130  A    between atoms: _319  and  _320
REMARK  131  A    between atoms: _319  and  _322
REMARK  132  A    between atoms: _322  and  _323
REMARK  133  A    between atoms: _333  and  _335
REMARK  134  A    between atoms: _335  and  _336
REMARK  135  A    between atoms: _335  and  _338
REMARK  136  A    between atoms: _338  and  _339
REMARK  137  A    between atoms: _342  and  _344
REMARK  138  A    between atoms: _344  and  _345
REMARK  139  A    between atoms: _344  and  _347
REMARK  140  A    between atoms: _347  and  _348
REMARK  141  A    between atoms: _353  and  _354
REMARK  142  A    between atoms: _356  and  _358
REMARK  143  A    between atoms: _358  and  _359
REMARK  144  A    between atoms: _358  and  _361
REMARK  145  A    between atoms: _361  and  _362
REMARK  146  A    between atoms: _362  and  _363
REMARK  147  A    between atoms: _366  and  _368
REMARK  148  A    between atoms: _368  and  _369
REMARK  149  A    between atoms: _368  and  _371
REMARK  150  A    between atoms: _371  and  _372
REMARK  151  A    between atoms: _375  and  _377
REMARK  152  A    between atoms: _377  and  _378
REMARK  153  A    between atoms: _377  and  _380
REMARK  154  A    between atoms: _380  and  _381
REMARK  155  A    between atoms: _386  and  _388
REMARK  156  A    between atoms: _388  and  _389
REMARK  157  A    between atoms: _388  and  _391
REMARK  158  A    between atoms: _391  and  _392
REMARK                            x       y       z     vdW  Elec       q    Type
REMARK                         _______ _______ _______ _____ _____    ______ ____
ROOT
ATOM      1  CA  GLY A   1      94.125  11.737  15.888  0.00  0.00    +0.156 C 
ENDROOT
BRANCH   1   2
ATOM      2  N   GLY A   1      93.658  12.843  16.742  0.00  0.00    -0.238 NA
ATOM      3  H   GLY A   1      93.845  13.830  16.472  0.00  0.00    +0.142 HD
ENDBRANCH   1   2
BRANCH   1   4
ATOM      4  C   GLY A   1      95.612  11.585  16.111  0.00  0.00    +0.226 C 
ATOM      5  O   GLY A   1      96.357  12.516  15.887  0.00  0.00    -0.287 OA
ENDBRANCH   1   4
TORSDOF 2
REMARK  Name = ../refined-set-2016/4cu7/4cu7_pocket.pdb
REMARK  158 active torsions:
REMARK  status: ('A' for Active; 'I' for Inactive)
REMARK    1  A    between atoms: _1  and  _3
REMARK    2  A    between atoms: _3  and  _4
REMARK    3  A    between atoms: _3  and  _6
REMARK    4  A    between atoms: _6  and  _7
REMARK    5  A    between atoms: _7  and  _8
REMARK    6  A    between atoms: _11  and  _13
REMARK    7  A    between atoms: _13  and  _14
REMARK    8  A    between atoms: _13  and  _16
REMARK    9  A    between atoms: _16  and  _17
REMARK   10  A    between atoms: _17  and  _18
REMARK   11  A    between atoms: _18  and  _19
REMARK   12  A    between atoms: _28  and  _30
REMARK   13  A    between atoms: _30  and  _31
REMARK   14  A    between atoms: _30  and  _33
REMARK   15  A    between atoms: _33  and  _34
REMARK   16  A    between atoms: _44  and  _46
REMARK   17  A    between atoms: _46  and  _47
REMARK   18  A    between atoms: _46  and  _49
REMARK   19  A    between atoms: _49  and  _50
REMARK   20  A    between atoms: _52  and  _54
REMARK   21  A    between atoms: _54  and  _55
REMARK   22  A    between atoms: _54  and  _57
REMARK   23  A    between atoms: _57  and  _58
REMARK   24  A    between atoms: _63  and  _65
REMARK   25  A    between atoms: _65  and  _66
REMARK   26  A    between atoms: _65  and  _68
REMARK   27  A    between atoms: _68  and  _69
REMARK   28  A    between atoms: _69  and  _70
REMARK   29  A    between atoms: _70  and  _71
REMARK   30  A    between atoms: _80  and  _82
REMARK   31  A    between atoms: _82  and  _83
REMARK   32  A    between atoms: _82  and  _85
REMARK   33  A    between atoms: _85  and  _86
REMARK   34  A    between atoms: _89  and  _91
REMARK   35  A    between atoms: _91  and  _92
REMARK   36  A    between atoms: _91  and  _94
REMARK   37  A    between atoms: _94  and  _95
REMARK   38  A    between atoms: _100  and  _102
REMARK   39  A    between atoms: _102  and  _103
REMARK   40  A    between atoms: _102  and  _105
REMARK   41  A    between atoms: _105  and  _106
REMARK   42  A    between atoms: _106  and  _107
REMARK   43  A    between atoms: _110  and  _112
REMARK   44  A    between atoms: _112  and  _113
REMARK   45  A    between atoms: _112  and  _115
REMARK   46  A    between atoms: _115  and  _116
REMARK   47  A    between atoms: _119  and  _121
REMARK   48  A    between atoms: _121  and  _122
REMARK   49  A    between atoms: _121  and  _124
REMARK   50  A    between atoms: _124  and  _125
REMARK   51  A    between atoms: _125  and  _126
REMARK   52  A    between atoms: _126  and  _127
REMARK   53  A    between atoms: _127  and  _128
REMARK   54  A    between atoms: _132  and  _134
REMARK   55  A    between atoms: _134  and  _135
REMARK   56  A    between atoms: _134  and  _137
REMARK   57  A    between atoms: _137  and  _138
REMARK   58  A    between atoms: _143  and  _145
REMARK   59  A    between atoms: _145  and  _146
REMARK   60  A    between atoms: _145  and  _148
REMARK   61  A    between atoms: _148  and  _149
REMARK   62  A    between atoms: _149  and  _150
REMARK   63  A    between atoms: _153  and  _155
REMARK   64  A    between atoms: _155  and  _156
REMARK   65  A    between atoms: _158  and  _160
REMARK   66  A    between atoms: _160  and  _161
REMARK   67  A    between atoms: _160  and  _163
REMARK   68  A    between atoms: _163  and  _164
REMARK   69  A    between atoms: _167  and  _169
REMARK   70  A    between atoms: _169  and  _170
REMARK   71  A    between atoms: _169  and  _172
REMARK   72  A    between atoms: _172  and  _173
REMARK   73  A    between atoms: _173  and  _174
REMARK   74  A    between atoms: _174  and  _175
REMARK   75  A    between atoms: _184  and  _186
REMARK   76  A    between atoms: _186  and  _187
REMARK   77  A    between atoms: _186  and  _189
REMARK   78  A    between atoms: _189  and  _190
REMARK   79  A    between atoms: _195  and  _197
REMARK   80  A    between atoms: _197  and  _198
REMARK   81  A    between atoms: _197  and  _200
REMARK   82  A    between atoms: _200  and  _201
REMARK   83  A    between atoms: _206  and  _207
REMARK   84  A    between atoms: _209  and  _211
REMARK   85  A    between atoms: _211  and  _212
REMARK   86  A    between atoms: _211  and  _214
REMARK   87  A    between atoms: _214  and  _215
REMARK   88  A    between atoms: _215  and  _216
REMARK   89  A    between atoms: _219  and  _221
REMARK   90  A    between atoms: _221  and  _222
REMARK   91  A    between atoms: _221  and  _224
REMARK   92  A    between atoms: _224  and  _225
REMARK   93  A    between atoms: _228  and  _230
REMARK   94  A    between atoms: _230  and  _231
REMARK   95  A    between atoms: _230  and  _233
REMARK   96  A    between atoms: _233  and  _234
REMARK   97  A    between atoms: _236  and  _238
REMARK   98  A    between atoms: _238  and  _239
REMARK   99  A    between atoms: _238  and  _241
REMARK  100  A    between atoms: _241  and  _242
REMARK  101  A    between atoms: _244  and  _246
REMARK  102  A    between atoms: _246  and  _247
REMARK  103  A    between atoms: _250  and  _252
REMARK  104  A    between atoms: _252  and  _253
REMARK  105  A    between atoms: _252  and  _255
REMARK  106  A    between atoms: _255  and  _256
REMARK  107  A    between atoms: _259  and  _261
REMARK  108  A    between atoms: _261  and  _262
REMARK  109  A    between atoms: _261  and  _264
REMARK  110  A    between atoms: _264  and  _265
REMARK  111  A    between atoms: _270  and  _272
REMARK  112  A    between atoms: _272  and  _273
REMARK  113  A    between atoms: _272  and  _275
REMARK  114  A    between atoms: _278  and  _280
REMARK  115  A    between atoms: _280  and  _281
REMARK  116  A    between atoms: _283  and  _285
REMARK  117  A    between atoms: _285  and  _286
REMARK  118  A    between atoms: _285  and  _288
REMARK  119  A    between atoms: _288  and  _289
REMARK  120  A    between atoms: _299  and  _301
REMARK  121  A    between atoms: _301  and  _302
REMARK  122  A    between atoms: _304  and  _306
REMARK  123  A    between atoms: _306  and  _307
REMARK  124  A    between atoms: _306  and  _309
REMARK  125  A    between atoms: _309  and  _310
REMARK  126  A    between atoms: _310  and  _311
REMARK  127  A    between atoms: _311  and  _312
REMARK  128  A    between atoms: _312  and  _313
REMARK  129  A    between atoms: _317  and  _319
REMARK  130  A    between atoms: _319  and  _320
REMARK  131  A    between atoms: _319  and  _322
REMARK  132  A    between atoms: _322  and  _323
REMARK  133  A    between atoms: _333  and  _335
REMARK  134  A    between atoms: _335  and  _336
REMARK  135  A    between atoms: _335  and  _338
REMARK  136  A    between atoms: _338  and  _339
REMARK  137  A    between atoms: _342  and  _344
REMARK  138  A    between atoms: _344  and  _345
REMARK  139  A    between atoms: _344  and  _347
REMARK  140  A    between atoms: _347  and  _348
REMARK  141  A    between atoms: _353  and  _354
REMARK  142  A    between atoms: _356  and  _358
REMARK  143  A    between atoms: _358  and  _359
REMARK  144  A    between atoms: _358  and  _361
REMARK  145  A    between atoms: _361  and  _362
REMARK  146  A    between atoms: _362  and  _363
REMARK  147  A    between atoms: _366  and  _368
REMARK  148  A    between atoms: _368  and  _369
REMARK  149  A    between atoms: _368  and  _371
REMARK  150  A    between atoms: _371  and  _372
REMARK  151  A    between atoms: _375  and  _377
REMARK  152  A    between atoms: _377  and  _378
REMARK  153  A    between atoms: _377  and  _380
REMARK  154  A    between atoms: _380  and  _381
REMARK  155  A    between atoms: _386  and  _388
REMARK  156  A    between atoms: _388  and  _389
REMARK  157  A    between atoms: _388  and  _391
REMARK  158  A    between atoms: _391  and  _392
REMARK                            x       y       z     vdW  Elec       q    Type
REMARK                         _______ _______ _______ _____ _____    ______ ____
ROOT
ATOM      1  CA  ASP A   1     100.033   8.457  14.882  0.00  0.00    +0.144 C 
ENDROOT
BRANCH   1   2
ATOM      2  N   ASP A   1      99.202   9.483  15.486  0.00  0.00    -0.239 NA
ATOM      3  H   ASP A   1      99.400  10.487  15.300  0.00  0.00    +0.142 HD
ENDBRANCH   1   2
BRANCH   1   4
ATOM      4  C   ASP A   1     101.153   7.960  15.788  0.00  0.00    +0.225 C 
ATOM      5  O   ASP A   1     101.802   6.984  15.452  0.00  0.00    -0.287 OA
ENDBRANCH   1   4
BRANCH   1   6
ATOM      6  CB  ASP A   1     100.609   8.878  13.532  0.00  0.00    +0.139 C 
BRANCH   6   7
ATOM      7  CG  ASP A   1     101.567  10.064  13.633  0.00  0.00    +0.367 C 
ATOM      8  OD2 ASP A   1     101.464  10.884  14.584  0.00  0.00    -0.246 OA
ATOM      9  OD1 ASP A   1     102.411  10.195  12.723  0.00  0.00    -0.246 OA
ENDBRANCH   6   7
ENDBRANCH   1   6
TORSDOF 4
REMARK  Name = ../refined-set-2016/4cu7/4cu7_pocket.pdb
REMARK  158 active torsions:
REMARK  status: ('A' for Active; 'I' for Inactive)
REMARK    1  A    between atoms: _1  and  _3
REMARK    2  A    between atoms: _3  and  _4
REMARK    3  A    between atoms: _3  and  _6
REMARK    4  A    between atoms: _6  and  _7
REMARK    5  A    between atoms: _7  and  _8
REMARK    6  A    between atoms: _11  and  _13
REMARK    7  A    between atoms: _13  and  _14
REMARK    8  A    between atoms: _13  and  _16
REMARK    9  A    between atoms: _16  and  _17
REMARK   10  A    between atoms: _17  and  _18
REMARK   11  A    between atoms: _18  and  _19
REMARK   12  A    between atoms: _28  and  _30
REMARK   13  A    between atoms: _30  and  _31
REMARK   14  A    between atoms: _30  and  _33
REMARK   15  A    between atoms: _33  and  _34
REMARK   16  A    between atoms: _44  and  _46
REMARK   17  A    between atoms: _46  and  _47
REMARK   18  A    between atoms: _46  and  _49
REMARK   19  A    between atoms: _49  and  _50
REMARK   20  A    between atoms: _52  and  _54
REMARK   21  A    between atoms: _54  and  _55
REMARK   22  A    between atoms: _54  and  _57
REMARK   23  A    between atoms: _57  and  _58
REMARK   24  A    between atoms: _63  and  _65
REMARK   25  A    between atoms: _65  and  _66
REMARK   26  A    between atoms: _65  and  _68
REMARK   27  A    between atoms: _68  and  _69
REMARK   28  A    between atoms: _69  and  _70
REMARK   29  A    between atoms: _70  and  _71
REMARK   30  A    between atoms: _80  and  _82
REMARK   31  A    between atoms: _82  and  _83
REMARK   32  A    between atoms: _82  and  _85
REMARK   33  A    between atoms: _85  and  _86
REMARK   34  A    between atoms: _89  and  _91
REMARK   35  A    between atoms: _91  and  _92
REMARK   36  A    between atoms: _91  and  _94
REMARK   37  A    between atoms: _94  and  _95
REMARK   38  A    between atoms: _100  and  _102
REMARK   39  A    between atoms: _102  and  _103
REMARK   40  A    between atoms: _102  and  _105
REMARK   41  A    between atoms: _105  and  _106
REMARK   42  A    between atoms: _106  and  _107
REMARK   43  A    between atoms: _110  and  _112
REMARK   44  A    between atoms: _112  and  _113
REMARK   45  A    between atoms: _112  and  _115
REMARK   46  A    between atoms: _115  and  _116
REMARK   47  A    between atoms: _119  and  _121
REMARK   48  A    between atoms: _121  and  _122
REMARK   49  A    between atoms: _121  and  _124
REMARK   50  A    between atoms: _124  and  _125
REMARK   51  A    between atoms: _125  and  _126
REMARK   52  A    between atoms: _126  and  _127
REMARK   53  A    between atoms: _127  and  _128
REMARK   54  A    between atoms: _132  and  _134
REMARK   55  A    between atoms: _134  and  _135
REMARK   56  A    between atoms: _134  and  _137
REMARK   57  A    between atoms: _137  and  _138
REMARK   58  A    between atoms: _143  and  _145
REMARK   59  A    between atoms: _145  and  _146
REMARK   60  A    between atoms: _145  and  _148
REMARK   61  A    between atoms: _148  and  _149
REMARK   62  A    between atoms: _149  and  _150
REMARK   63  A    between atoms: _153  and  _155
REMARK   64  A    between atoms: _155  and  _156
REMARK   65  A    between atoms: _158  and  _160
REMARK   66  A    between atoms: _160  and  _161
REMARK   67  A    between atoms: _160  and  _163
REMARK   68  A    between atoms: _163  and  _164
REMARK   69  A    between atoms: _167  and  _169
REMARK   70  A    between atoms: _169  and  _170
REMARK   71  A    between atoms: _169  and  _172
REMARK   72  A    between atoms: _172  and  _173
REMARK   73  A    between atoms: _173  and  _174
REMARK   74  A    between atoms: _174  and  _175
REMARK   75  A    between atoms: _184  and  _186
REMARK   76  A    between atoms: _186  and  _187
REMARK   77  A    between atoms: _186  and  _189
REMARK   78  A    between atoms: _189  and  _190
REMARK   79  A    between atoms: _195  and  _197
REMARK   80  A    between atoms: _197  and  _198
REMARK   81  A    between atoms: _197  and  _200
REMARK   82  A    between atoms: _200  and  _201
REMARK   83  A    between atoms: _206  and  _207
REMARK   84  A    between atoms: _209  and  _211
REMARK   85  A    between atoms: _211  and  _212
REMARK   86  A    between atoms: _211  and  _214
REMARK   87  A    between atoms: _214  and  _215
REMARK   88  A    between atoms: _215  and  _216
REMARK   89  A    between atoms: _219  and  _221
REMARK   90  A    between atoms: _221  and  _222
REMARK   91  A    between atoms: _221  and  _224
REMARK   92  A    between atoms: _224  and  _225
REMARK   93  A    between atoms: _228  and  _230
REMARK   94  A    between atoms: _230  and  _231
REMARK   95  A    between atoms: _230  and  _233
REMARK   96  A    between atoms: _233  and  _234
REMARK   97  A    between atoms: _236  and  _238
REMARK   98  A    between atoms: _238  and  _239
REMARK   99  A    between atoms: _238  and  _241
REMARK  100  A    between atoms: _241  and  _242
REMARK  101  A    between atoms: _244  and  _246
REMARK  102  A    between atoms: _246  and  _247
REMARK  103  A    between atoms: _250  and  _252
REMARK  104  A    between atoms: _252  and  _253
REMARK  105  A    between atoms: _252  and  _255
REMARK  106  A    between atoms: _255  and  _256
REMARK  107  A    between atoms: _259  and  _261
REMARK  108  A    between atoms: _261  and  _262
REMARK  109  A    between atoms: _261  and  _264
REMARK  110  A    between atoms: _264  and  _265
REMARK  111  A    between atoms: _270  and  _272
REMARK  112  A    between atoms: _272  and  _273
REMARK  113  A    between atoms: _272  and  _275
REMARK  114  A    between atoms: _278  and  _280
REMARK  115  A    between atoms: _280  and  _281
REMARK  116  A    between atoms: _283  and  _285
REMARK  117  A    between atoms: _285  and  _286
REMARK  118  A    between atoms: _285  and  _288
REMARK  119  A    between atoms: _288  and  _289
REMARK  120  A    between atoms: _299  and  _301
REMARK  121  A    between atoms: _301  and  _302
REMARK  122  A    between atoms: _304  and  _306
REMARK  123  A    between atoms: _306  and  _307
REMARK  124  A    between atoms: _306  and  _309
REMARK  125  A    between atoms: _309  and  _310
REMARK  126  A    between atoms: _310  and  _311
REMARK  127  A    between atoms: _311  and  _312
REMARK  128  A    between atoms: _312  and  _313
REMARK  129  A    between atoms: _317  and  _319
REMARK  130  A    between atoms: _319  and  _320
REMARK  131  A    between atoms: _319  and  _322
REMARK  132  A    between atoms: _322  and  _323
REMARK  133  A    between atoms: _333  and  _335
REMARK  134  A    between atoms: _335  and  _336
REMARK  135  A    between atoms: _335  and  _338
REMARK  136  A    between atoms: _338  and  _339
REMARK  137  A    between atoms: _342  and  _344
REMARK  138  A    between atoms: _344  and  _345
REMARK  139  A    between atoms: _344  and  _347
REMARK  140  A    between atoms: _347  and  _348
REMARK  141  A    between atoms: _353  and  _354
REMARK  142  A    between atoms: _356  and  _358
REMARK  143  A    between atoms: _358  and  _359
REMARK  144  A    between atoms: _358  and  _361
REMARK  145  A    between atoms: _361  and  _362
REMARK  146  A    between atoms: _362  and  _363
REMARK  147  A    between atoms: _366  and  _368
REMARK  148  A    between atoms: _368  and  _369
REMARK  149  A    between atoms: _368  and  _371
REMARK  150  A    between atoms: _371  and  _372
REMARK  151  A    between atoms: _375  and  _377
REMARK  152  A    between atoms: _377  and  _378
REMARK  153  A    between atoms: _377  and  _380
REMARK  154  A    between atoms: _380  and  _381
REMARK  155  A    between atoms: _386  and  _388
REMARK  156  A    between atoms: _388  and  _389
REMARK  157  A    between atoms: _388  and  _391
REMARK  158  A    between atoms: _391  and  _392
REMARK                            x       y       z     vdW  Elec       q    Type
REMARK                         _______ _______ _______ _____ _____    ______ ____
ROOT
ATOM      1  NE  ARG A   1     103.257   5.856  11.514  0.00  0.00    -0.265 N 
ATOM      2  HE  ARG A   1     103.051   6.872  11.602  0.00  0.00    +0.259 HD
ATOM      3  CZ  ARG A   1     104.330   5.494  10.815  0.00  0.00    +0.342 C 
ATOM      4  NH2 ARG A   1     104.663   4.209  10.685  0.00  0.00    -0.292 N 
ATOM      5 HH21 ARG A   1     104.081   3.473  11.133  0.00  0.00    +0.255 HD
ATOM      6 HH22 ARG A   1     105.505   3.943  10.135  0.00  0.00    +0.255 HD
ATOM      7  NH1 ARG A   1     105.070   6.432  10.236  0.00  0.00    -0.292 N 
ATOM      8 HH11 ARG A   1     104.808   7.434  10.332  0.00  0.00    +0.255 HD
ATOM      9 HH12 ARG A   1     105.912   6.165   9.686  0.00  0.00    +0.255 HD
ENDROOT
BRANCH   1  10
ATOM     10  CD  ARG A   1     102.354   4.917  12.162  0.00  0.00    +0.174 C 
BRANCH  10  11
ATOM     11  CG  ARG A   1     102.777   4.567  13.579  0.00  0.00    +0.045 C 
BRANCH  11  12
ATOM     12  CB  ARG A   1     101.819   3.554  14.172  0.00  0.00    +0.029 C 
BRANCH  12  13
ATOM     13  CA  ARG A   1     102.161   3.166  15.625  0.00  0.00    +0.133 C 
BRANCH  13  14
ATOM     14  N   ARG A   1     101.713   4.206  16.577  0.00  0.00    -0.239 NA
ATOM     15  H   ARG A   1     101.773   5.215  16.334  0.00  0.00    +0.142 HD
ENDBRANCH  13  14
BRANCH  13  16
ATOM     16  C   ARG A   1     103.663   2.843  15.753  0.00  0.00    +0.224 C 
ATOM     17  O   ARG A   1     104.111   1.817  15.226  0.00  0.00    -0.287 OA
ENDBRANCH  13  16
ENDBRANCH  12  13
ENDBRANCH  11  12
ENDBRANCH  10  11
ENDBRANCH   1  10
TORSDOF 6
REMARK  Name = ../refined-set-2016/4cu7/4cu7_pocket.pdb
REMARK  158 active torsions:
REMARK  status: ('A' for Active; 'I' for Inactive)
REMARK    1  A    between atoms: _1  and  _3
REMARK    2  A    between atoms: _3  and  _4
REMARK    3  A    between atoms: _3  and  _6
REMARK    4  A    between atoms: _6  and  _7
REMARK    5  A    between atoms: _7  and  _8
REMARK    6  A    between atoms: _11  and  _13
REMARK    7  A    between atoms: _13  and  _14
REMARK    8  A    between atoms: _13  and  _16
REMARK    9  A    between atoms: _16  and  _17
REMARK   10  A    between atoms: _17  and  _18
REMARK   11  A    between atoms: _18  and  _19
REMARK   12  A    between atoms: _28  and  _30
REMARK   13  A    between atoms: _30  and  _31
REMARK   14  A    between atoms: _30  and  _33
REMARK   15  A    between atoms: _33  and  _34
REMARK   16  A    between atoms: _44  and  _46
REMARK   17  A    between atoms: _46  and  _47
REMARK   18  A    between atoms: _46  and  _49
REMARK   19  A    between atoms: _49  and  _50
REMARK   20  A    between atoms: _52  and  _54
REMARK   21  A    between atoms: _54  and  _55
REMARK   22  A    between atoms: _54  and  _57
REMARK   23  A    between atoms: _57  and  _58
REMARK   24  A    between atoms: _63  and  _65
REMARK   25  A    between atoms: _65  and  _66
REMARK   26  A    between atoms: _65  and  _68
REMARK   27  A    between atoms: _68  and  _69
REMARK   28  A    between atoms: _69  and  _70
REMARK   29  A    between atoms: _70  and  _71
REMARK   30  A    between atoms: _80  and  _82
REMARK   31  A    between atoms: _82  and  _83
REMARK   32  A    between atoms: _82  and  _85
REMARK   33  A    between atoms: _85  and  _86
REMARK   34  A    between atoms: _89  and  _91
REMARK   35  A    between atoms: _91  and  _92
REMARK   36  A    between atoms: _91  and  _94
REMARK   37  A    between atoms: _94  and  _95
REMARK   38  A    between atoms: _100  and  _102
REMARK   39  A    between atoms: _102  and  _103
REMARK   40  A    between atoms: _102  and  _105
REMARK   41  A    between atoms: _105  and  _106
REMARK   42  A    between atoms: _106  and  _107
REMARK   43  A    between atoms: _110  and  _112
REMARK   44  A    between atoms: _112  and  _113
REMARK   45  A    between atoms: _112  and  _115
REMARK   46  A    between atoms: _115  and  _116
REMARK   47  A    between atoms: _119  and  _121
REMARK   48  A    between atoms: _121  and  _122
REMARK   49  A    between atoms: _121  and  _124
REMARK   50  A    between atoms: _124  and  _125
REMARK   51  A    between atoms: _125  and  _126
REMARK   52  A    between atoms: _126  and  _127
REMARK   53  A    between atoms: _127  and  _128
REMARK   54  A    between atoms: _132  and  _134
REMARK   55  A    between atoms: _134  and  _135
REMARK   56  A    between atoms: _134  and  _137
REMARK   57  A    between atoms: _137  and  _138
REMARK   58  A    between atoms: _143  and  _145
REMARK   59  A    between atoms: _145  and  _146
REMARK   60  A    between atoms: _145  and  _148
REMARK   61  A    between atoms: _148  and  _149
REMARK   62  A    between atoms: _149  and  _150
REMARK   63  A    between atoms: _153  and  _155
REMARK   64  A    between atoms: _155  and  _156
REMARK   65  A    between atoms: _158  and  _160
REMARK   66  A    between atoms: _160  and  _161
REMARK   67  A    between atoms: _160  and  _163
REMARK   68  A    between atoms: _163  and  _164
REMARK   69  A    between atoms: _167  and  _169
REMARK   70  A    between atoms: _169  and  _170
REMARK   71  A    between atoms: _169  and  _172
REMARK   72  A    between atoms: _172  and  _173
REMARK   73  A    between atoms: _173  and  _174
REMARK   74  A    between atoms: _174  and  _175
REMARK   75  A    between atoms: _184  and  _186
REMARK   76  A    between atoms: _186  and  _187
REMARK   77  A    between atoms: _186  and  _189
REMARK   78  A    between atoms: _189  and  _190
REMARK   79  A    between atoms: _195  and  _197
REMARK   80  A    between atoms: _197  and  _198
REMARK   81  A    between atoms: _197  and  _200
REMARK   82  A    between atoms: _200  and  _201
REMARK   83  A    between atoms: _206  and  _207
REMARK   84  A    between atoms: _209  and  _211
REMARK   85  A    between atoms: _211  and  _212
REMARK   86  A    between atoms: _211  and  _214
REMARK   87  A    between atoms: _214  and  _215
REMARK   88  A    between atoms: _215  and  _216
REMARK   89  A    between atoms: _219  and  _221
REMARK   90  A    between atoms: _221  and  _222
REMARK   91  A    between atoms: _221  and  _224
REMARK   92  A    between atoms: _224  and  _225
REMARK   93  A    between atoms: _228  and  _230
REMARK   94  A    between atoms: _230  and  _231
REMARK   95  A    between atoms: _230  and  _233
REMARK   96  A    between atoms: _233  and  _234
REMARK   97  A    between atoms: _236  and  _238
REMARK   98  A    between atoms: _238  and  _239
REMARK   99  A    between atoms: _238  and  _241
REMARK  100  A    between atoms: _241  and  _242
REMARK  101  A    between atoms: _244  and  _246
REMARK  102  A    between atoms: _246  and  _247
REMARK  103  A    between atoms: _250  and  _252
REMARK  104  A    between atoms: _252  and  _253
REMARK  105  A    between atoms: _252  and  _255
REMARK  106  A    between atoms: _255  and  _256
REMARK  107  A    between atoms: _259  and  _261
REMARK  108  A    between atoms: _261  and  _262
REMARK  109  A    between atoms: _261  and  _264
REMARK  110  A    between atoms: _264  and  _265
REMARK  111  A    between atoms: _270  and  _272
REMARK  112  A    between atoms: _272  and  _273
REMARK  113  A    between atoms: _272  and  _275
REMARK  114  A    between atoms: _278  and  _280
REMARK  115  A    between atoms: _280  and  _281
REMARK  116  A    between atoms: _283  and  _285
REMARK  117  A    between atoms: _285  and  _286
REMARK  118  A    between atoms: _285  and  _288
REMARK  119  A    between atoms: _288  and  _289
REMARK  120  A    between atoms: _299  and  _301
REMARK  121  A    between atoms: _301  and  _302
REMARK  122  A    between atoms: _304  and  _306
REMARK  123  A    between atoms: _306  and  _307
REMARK  124  A    between atoms: _306  and  _309
REMARK  125  A    between atoms: _309  and  _310
REMARK  126  A    between atoms: _310  and  _311
REMARK  127  A    between atoms: _311  and  _312
REMARK  128  A    between atoms: _312  and  _313
REMARK  129  A    between atoms: _317  and  _319
REMARK  130  A    between atoms: _319  and  _320
REMARK  131  A    between atoms: _319  and  _322
REMARK  132  A    between atoms: _322  and  _323
REMARK  133  A    between atoms: _333  and  _335
REMARK  134  A    between atoms: _335  and  _336
REMARK  135  A    between atoms: _335  and  _338
REMARK  136  A    between atoms: _338  and  _339
REMARK  137  A    between atoms: _342  and  _344
REMARK  138  A    between atoms: _344  and  _345
REMARK  139  A    between atoms: _344  and  _347
REMARK  140  A    between atoms: _347  and  _348
REMARK  141  A    between atoms: _353  and  _354
REMARK  142  A    between atoms: _356  and  _358
REMARK  143  A    between atoms: _358  and  _359
REMARK  144  A    between atoms: _358  and  _361
REMARK  145  A    between atoms: _361  and  _362
REMARK  146  A    between atoms: _362  and  _363
REMARK  147  A    between atoms: _366  and  _368
REMARK  148  A    between atoms: _368  and  _369
REMARK  149  A    between atoms: _368  and  _371
REMARK  150  A    between atoms: _371  and  _372
REMARK  151  A    between atoms: _375  and  _377
REMARK  152  A    between atoms: _377  and  _378
REMARK  153  A    between atoms: _377  and  _380
REMARK  154  A    between atoms: _380  and  _381
REMARK  155  A    between atoms: _386  and  _388
REMARK  156  A    between atoms: _388  and  _389
REMARK  157  A    between atoms: _388  and  _391
REMARK  158  A    between atoms: _391  and  _392
REMARK                            x       y       z     vdW  Elec       q    Type
REMARK                         _______ _______ _______ _____ _____    ______ ____
ROOT
ATOM      1  C   ASN A   1      97.171   5.777  12.916  0.00  0.00    +0.239 C 
ATOM      2  O   ASN A   1      98.296   5.728  13.416  0.00  0.00    -0.274 OA
ATOM      3  N   TYR A   2      96.734   4.905  12.003  0.00  0.00    -0.298 N 
ATOM      4  H   TYR A   2      95.758   4.992  11.656  0.00  0.00    +0.150 HD
ENDROOT
BRANCH   1   5
ATOM      5  CA  ASN A   1      96.218   6.904  13.277  0.00  0.00    +0.154 C 
BRANCH   5   6
ATOM      6  N   ASN A   1      95.868   6.803  14.700  0.00  0.00    -0.238 NA
ATOM      7  H   ASN A   1      96.477   7.268  15.403  0.00  0.00    +0.142 HD
ENDBRANCH   5   6
BRANCH   5   8
ATOM      8  CB  ASN A   1      96.910   8.239  12.940  0.00  0.00    +0.111 C 
BRANCH   8   9
ATOM      9  CG  ASN A   1      95.948   9.424  12.884  0.00  0.00    +0.221 C 
ATOM     10  OD1 ASN A   1      94.834   9.421  13.473  0.00  0.00    -0.275 OA
ATOM     11  ND2 ASN A   1      96.377  10.468  12.153  0.00  0.00    -0.329 N 
ATOM     12 HD21 ASN A   1      95.782  11.315  12.057  0.00  0.00    +0.145 HD
ATOM     13 HD22 ASN A   1      97.304  10.428  11.683  0.00  0.00    +0.145 HD
ENDBRANCH   8   9
ENDBRANCH   5   8
ENDBRANCH   1   5
BRANCH   3  14
ATOM     14  CA  TYR A   2      97.580   3.826  11.470  0.00  0.00    +0.141 C 
BRANCH  14  15
ATOM     15  C   TYR A   2      98.204   2.931  12.544  0.00  0.00    +0.227 C 
ATOM     16  O   TYR A   2      99.313   2.432  12.361  0.00  0.00    -0.286 OA
ENDBRANCH  14  15
BRANCH  14  17
ATOM     17  CB  TYR A   2      98.661   4.375  10.506  0.00  0.00    +0.054 C 
BRANCH  17  18
ATOM     18  CG  TYR A   2      98.068   5.350   9.502  0.00  0.00    -0.020 A 
ATOM     19  CD2 TYR A   2      98.101   6.724   9.760  0.00  0.00    -0.001 A 
ATOM     20  CE2 TYR A   2      97.502   7.634   8.877  0.00  0.00    +0.036 A 
ATOM     21  CZ  TYR A   2      96.860   7.161   7.742  0.00  0.00    +0.134 A 
ATOM     22  CE1 TYR A   2      96.803   5.793   7.473  0.00  0.00    +0.036 A 
ATOM     23  CD1 TYR A   2      97.395   4.892   8.354  0.00  0.00    -0.001 A 
BRANCH  21  24
ATOM     24  OH  TYR A   2      96.277   8.063   6.873  0.00  0.00    -0.506 OA
ATOM     25  HH  TYR A   2      95.582   8.580   7.353  0.00  0.00    +0.292 HD
ENDBRANCH  21  24
ENDBRANCH  17  18
ENDBRANCH  14  17
ENDBRANCH   3  14
TORSDOF 9
REMARK  Name = ../refined-set-2016/4cu7/4cu7_pocket.pdb
REMARK  158 active torsions:
REMARK  status: ('A' for Active; 'I' for Inactive)
REMARK    1  A    between atoms: _1  and  _3
REMARK    2  A    between atoms: _3  and  _4
REMARK    3  A    between atoms: _3  and  _6
REMARK    4  A    between atoms: _6  and  _7
REMARK    5  A    between atoms: _7  and  _8
REMARK    6  A    between atoms: _11  and  _13
REMARK    7  A    between atoms: _13  and  _14
REMARK    8  A    between atoms: _13  and  _16
REMARK    9  A    between atoms: _16  and  _17
REMARK   10  A    between atoms: _17  and  _18
REMARK   11  A    between atoms: _18  and  _19
REMARK   12  A    between atoms: _28  and  _30
REMARK   13  A    between atoms: _30  and  _31
REMARK   14  A    between atoms: _30  and  _33
REMARK   15  A    between atoms: _33  and  _34
REMARK   16  A    between atoms: _44  and  _46
REMARK   17  A    between atoms: _46  and  _47
REMARK   18  A    between atoms: _46  and  _49
REMARK   19  A    between atoms: _49  and  _50
REMARK   20  A    between atoms: _52  and  _54
REMARK   21  A    between atoms: _54  and  _55
REMARK   22  A    between atoms: _54  and  _57
REMARK   23  A    between atoms: _57  and  _58
REMARK   24  A    between atoms: _63  and  _65
REMARK   25  A    between atoms: _65  and  _66
REMARK   26  A    between atoms: _65  and  _68
REMARK   27  A    between atoms: _68  and  _69
REMARK   28  A    between atoms: _69  and  _70
REMARK   29  A    between atoms: _70  and  _71
REMARK   30  A    between atoms: _80  and  _82
REMARK   31  A    between atoms: _82  and  _83
REMARK   32  A    between atoms: _82  and  _85
REMARK   33  A    between atoms: _85  and  _86
REMARK   34  A    between atoms: _89  and  _91
REMARK   35  A    between atoms: _91  and  _92
REMARK   36  A    between atoms: _91  and  _94
REMARK   37  A    between atoms: _94  and  _95
REMARK   38  A    between atoms: _100  and  _102
REMARK   39  A    between atoms: _102  and  _103
REMARK   40  A    between atoms: _102  and  _105
REMARK   41  A    between atoms: _105  and  _106
REMARK   42  A    between atoms: _106  and  _107
REMARK   43  A    between atoms: _110  and  _112
REMARK   44  A    between atoms: _112  and  _113
REMARK   45  A    between atoms: _112  and  _115
REMARK   46  A    between atoms: _115  and  _116
REMARK   47  A    between atoms: _119  and  _121
REMARK   48  A    between atoms: _121  and  _122
REMARK   49  A    between atoms: _121  and  _124
REMARK   50  A    between atoms: _124  and  _125
REMARK   51  A    between atoms: _125  and  _126
REMARK   52  A    between atoms: _126  and  _127
REMARK   53  A    between atoms: _127  and  _128
REMARK   54  A    between atoms: _132  and  _134
REMARK   55  A    between atoms: _134  and  _135
REMARK   56  A    between atoms: _134  and  _137
REMARK   57  A    between atoms: _137  and  _138
REMARK   58  A    between atoms: _143  and  _145
REMARK   59  A    between atoms: _145  and  _146
REMARK   60  A    between atoms: _145  and  _148
REMARK   61  A    between atoms: _148  and  _149
REMARK   62  A    between atoms: _149  and  _150
REMARK   63  A    between atoms: _153  and  _155
REMARK   64  A    between atoms: _155  and  _156
REMARK   65  A    between atoms: _158  and  _160
REMARK   66  A    between atoms: _160  and  _161
REMARK   67  A    between atoms: _160  and  _163
REMARK   68  A    between atoms: _163  and  _164
REMARK   69  A    between atoms: _167  and  _169
REMARK   70  A    between atoms: _169  and  _170
REMARK   71  A    between atoms: _169  and  _172
REMARK   72  A    between atoms: _172  and  _173
REMARK   73  A    between atoms: _173  and  _174
REMARK   74  A    between atoms: _174  and  _175
REMARK   75  A    between atoms: _184  and  _186
REMARK   76  A    between atoms: _186  and  _187
REMARK   77  A    between atoms: _186  and  _189
REMARK   78  A    between atoms: _189  and  _190
REMARK   79  A    between atoms: _195  and  _197
REMARK   80  A    between atoms: _197  and  _198
REMARK   81  A    between atoms: _197  and  _200
REMARK   82  A    between atoms: _200  and  _201
REMARK   83  A    between atoms: _206  and  _207
REMARK   84  A    between atoms: _209  and  _211
REMARK   85  A    between atoms: _211  and  _212
REMARK   86  A    between atoms: _211  and  _214
REMARK   87  A    between atoms: _214  and  _215
REMARK   88  A    between atoms: _215  and  _216
REMARK   89  A    between atoms: _219  and  _221
REMARK   90  A    between atoms: _221  and  _222
REMARK   91  A    between atoms: _221  and  _224
REMARK   92  A    between atoms: _224  and  _225
REMARK   93  A    between atoms: _228  and  _230
REMARK   94  A    between atoms: _230  and  _231
REMARK   95  A    between atoms: _230  and  _233
REMARK   96  A    between atoms: _233  and  _234
REMARK   97  A    between atoms: _236  and  _238
REMARK   98  A    between atoms: _238  and  _239
REMARK   99  A    between atoms: _238  and  _241
REMARK  100  A    between atoms: _241  and  _242
REMARK  101  A    between atoms: _244  and  _246
REMARK  102  A    between atoms: _246  and  _247
REMARK  103  A    between atoms: _250  and  _252
REMARK  104  A    between atoms: _252  and  _253
REMARK  105  A    between atoms: _252  and  _255
REMARK  106  A    between atoms: _255  and  _256
REMARK  107  A    between atoms: _259  and  _261
REMARK  108  A    between atoms: _261  and  _262
REMARK  109  A    between atoms: _261  and  _264
REMARK  110  A    between atoms: _264  and  _265
REMARK  111  A    between atoms: _270  and  _272
REMARK  112  A    between atoms: _272  and  _273
REMARK  113  A    between atoms: _272  and  _275
REMARK  114  A    between atoms: _278  and  _280
REMARK  115  A    between atoms: _280  and  _281
REMARK  116  A    between atoms: _283  and  _285
REMARK  117  A    between atoms: _285  and  _286
REMARK  118  A    between atoms: _285  and  _288
REMARK  119  A    between atoms: _288  and  _289
REMARK  120  A    between atoms: _299  and  _301
REMARK  121  A    between atoms: _301  and  _302
REMARK  122  A    between atoms: _304  and  _306
REMARK  123  A    between atoms: _306  and  _307
REMARK  124  A    between atoms: _306  and  _309
REMARK  125  A    between atoms: _309  and  _310
REMARK  126  A    between atoms: _310  and  _311
REMARK  127  A    between atoms: _311  and  _312
REMARK  128  A    between atoms: _312  and  _313
REMARK  129  A    between atoms: _317  and  _319
REMARK  130  A    between atoms: _319  and  _320
REMARK  131  A    between atoms: _319  and  _322
REMARK  132  A    between atoms: _322  and  _323
REMARK  133  A    between atoms: _333  and  _335
REMARK  134  A    between atoms: _335  and  _336
REMARK  135  A    between atoms: _335  and  _338
REMARK  136  A    between atoms: _338  and  _339
REMARK  137  A    between atoms: _342  and  _344
REMARK  138  A    between atoms: _344  and  _345
REMARK  139  A    between atoms: _344  and  _347
REMARK  140  A    between atoms: _347  and  _348
REMARK  141  A    between atoms: _353  and  _354
REMARK  142  A    between atoms: _356  and  _358
REMARK  143  A    between atoms: _358  and  _359
REMARK  144  A    between atoms: _358  and  _361
REMARK  145  A    between atoms: _361  and  _362
REMARK  146  A    between atoms: _362  and  _363
REMARK  147  A    between atoms: _366  and  _368
REMARK  148  A    between atoms: _368  and  _369
REMARK  149  A    between atoms: _368  and  _371
REMARK  150  A    between atoms: _371  and  _372
REMARK  151  A    between atoms: _375  and  _377
REMARK  152  A    between atoms: _377  and  _378
REMARK  153  A    between atoms: _377  and  _380
REMARK  154  A    between atoms: _380  and  _381
REMARK  155  A    between atoms: _386  and  _388
REMARK  156  A    between atoms: _388  and  _389
REMARK  157  A    between atoms: _388  and  _391
REMARK  158  A    between atoms: _391  and  _392
REMARK                            x       y       z     vdW  Elec       q    Type
REMARK                         _______ _______ _______ _____ _____    ______ ____
ROOT
ATOM      1  CA  SER A   3      94.587   2.827   5.226  0.00  0.00    +0.178 C 
ENDROOT
BRANCH   1   3
ATOM      2  C   THR A   2      93.684   4.426   6.955  0.00  0.00    +0.243 C 
ATOM      3  N   SER A   3      94.372   3.399   6.556  0.00  0.00    -0.295 N 
ATOM      4  H   SER A   3      94.859   2.890   7.321  0.00  0.00    +0.150 HD
ATOM      5  O   THR A   2      93.299   5.279   6.152  0.00  0.00    -0.273 OA
BRANCH   2   6
ATOM      6  CA  THR A   2      93.408   4.557   8.453  0.00  0.00    +0.176 C 
BRANCH   6   9
ATOM      7  C   GLU A   1      93.471   6.395  10.030  0.00  0.00    +0.238 C 
ATOM      8  O   GLU A   1      94.362   5.854  10.702  0.00  0.00    -0.274 OA
ATOM      9  N   THR A   2      93.005   5.883   8.897  0.00  0.00    -0.295 N 
ATOM     10  H   THR A   2      92.342   6.438   8.318  0.00  0.00    +0.150 HD
BRANCH   7  11
ATOM     11  CA  GLU A   1      92.868   7.699  10.466  0.00  0.00    +0.145 C 
BRANCH  11  12
ATOM     12  N   GLU A   1      92.397   7.634  11.855  0.00  0.00    -0.238 NA
ATOM     13  H   GLU A   1      92.802   6.928  12.502  0.00  0.00    +0.142 HD
ENDBRANCH  11  12
BRANCH  11  14
ATOM     14  CB  GLU A   1      93.913   8.794  10.300  0.00  0.00    +0.038 C 
BRANCH  14  15
ATOM     15  CG  GLU A   1      93.728   9.589   9.002  0.00  0.00    +0.116 C 
BRANCH  15  16
ATOM     16  CD  GLU A   1      94.835  10.610   8.824  0.00  0.00    +0.365 C 
ATOM     17  OE2 GLU A   1      94.760  11.692   9.420  0.00  0.00    -0.246 OA
ATOM     18  OE1 GLU A   1      95.805  10.292   8.098  0.00  0.00    -0.246 OA
ENDBRANCH  15  16
ENDBRANCH  14  15
ENDBRANCH  11  14
ENDBRANCH   7  11
ENDBRANCH   6   9
BRANCH   6  19
ATOM     19  CB  THR A   2      92.316   3.526   8.799  0.00  0.00    +0.137 C 
ATOM     20  CG2 THR A   2      92.138   3.485  10.350  0.00  0.00    +0.034 C 
BRANCH  19  21
ATOM     21  OG1 THR A   2      91.082   3.901   8.164  0.00  0.00    -0.382 OA
ATOM     22  HG1 THR A   2      90.382   3.237   8.388  0.00  0.00    +0.210 HD
ENDBRANCH  19  21
ENDBRANCH   6  19
ENDBRANCH   2   6
ENDBRANCH   1   3
BRANCH   1  23
ATOM     23  C   SER A   3      95.652   3.654   4.507  0.00  0.00    +0.243 C 
ATOM     24  O   SER A   3      96.825   3.515   4.764  0.00  0.00    -0.273 OA
ATOM     25  N   SER A   4      95.302   4.780   3.874  0.00  0.00    -0.295 N 
ATOM     26  H   SER A   4      94.343   5.163   3.998  0.00  0.00    +0.150 HD
BRANCH  25  27
ATOM     27  CA  SER A   4      96.260   5.481   3.005  0.00  0.00    +0.178 C 
BRANCH  27  28
ATOM     28  C   SER A   4      96.783   4.532   1.935  0.00  0.00    +0.243 C 
ATOM     29  O   SER A   4      97.968   4.567   1.555  0.00  0.00    -0.273 OA
ATOM     30  N   ALA A   5      95.877   3.677   1.450  0.00  0.00    -0.297 N 
ATOM     31  H   ALA A   5      94.999   3.521   1.985  0.00  0.00    +0.150 HD
BRANCH  30  32
ATOM     32  CA  ALA A   5      96.074   2.949   0.190  0.00  0.00    +0.149 C 
ATOM     33  CB  ALA A   5      94.908   1.998  -0.077  0.00  0.00    +0.031 C 
BRANCH  32  34
ATOM     34  C   ALA A   5      96.127   4.038  -0.889  0.00  0.00    +0.241 C 
ATOM     35  O   ALA A   5      95.440   5.075  -0.766  0.00  0.00    -0.273 OA
ATOM     36  N   THR A   6      96.951   3.815  -1.907  0.00  0.00    -0.296 N 
ATOM     37  H   THR A   6      97.515   2.941  -1.912  0.00  0.00    +0.150 HD
BRANCH  36  38
ATOM     38  CA  THR A   6      97.095   4.741  -3.010  0.00  0.00    +0.164 C 
BRANCH  38  39
ATOM     39  CB  THR A   6      98.542   5.271  -3.107  0.00  0.00    +0.136 C 
ATOM     40  CG2 THR A   6      98.776   6.294  -1.988  0.00  0.00    +0.034 C 
BRANCH  39  41
ATOM     41  OG1 THR A   6      99.465   4.188  -2.949  0.00  0.00    -0.382 OA
ATOM     42  HG1 THR A   6     100.391   4.533  -3.012  0.00  0.00    +0.210 HD
ENDBRANCH  39  41
ENDBRANCH  38  39
BRANCH  38  43
ATOM     43  C   THR A   6      96.645   4.099  -4.326  0.00  0.00    +0.229 C 
ATOM     44  O   THR A   6      97.004   2.971  -4.627  0.00  0.00    -0.286 OA
ENDBRANCH  38  43
ENDBRANCH  36  38
ENDBRANCH  32  34
ENDBRANCH  30  32
ENDBRANCH  27  28
BRANCH  27  45
ATOM     45  CB  SER A   4      97.425   6.127   3.773  0.00  0.00    +0.166 C 
BRANCH  45  46
ATOM     46  OG  SER A   4      97.086   7.437   4.217  0.00  0.00    -0.380 OA
ATOM     47  H   SER A   4      97.853   7.827   4.707  0.00  0.00    +0.211 HD
ENDBRANCH  45  46
ENDBRANCH  27  45
ENDBRANCH  25  27
ENDBRANCH   1  23
BRANCH   1  48
ATOM     48  CB  SER A   3      93.303   2.761   4.407  0.00  0.00    +0.166 C 
BRANCH  48  49
ATOM     49  OG  SER A   3      93.542   2.061   3.193  0.00  0.00    -0.380 OA
ATOM     50  H   SER A   3      92.705   2.022   2.666  0.00  0.00    +0.211 HD
ENDBRANCH  48  49
ENDBRANCH   1  48
TORSDOF 23
REMARK  Name = ../refined-set-2016/4cu7/4cu7_pocket.pdb
REMARK  158 active torsions:
REMARK  status: ('A' for Active; 'I' for Inactive)
REMARK    1  A    between atoms: _1  and  _3
REMARK    2  A    between atoms: _3  and  _4
REMARK    3  A    between atoms: _3  and  _6
REMARK    4  A    between atoms: _6  and  _7
REMARK    5  A    between atoms: _7  and  _8
REMARK    6  A    between atoms: _11  and  _13
REMARK    7  A    between atoms: _13  and  _14
REMARK    8  A    between atoms: _13  and  _16
REMARK    9  A    between atoms: _16  and  _17
REMARK   10  A    between atoms: _17  and  _18
REMARK   11  A    between atoms: _18  and  _19
REMARK   12  A    between atoms: _28  and  _30
REMARK   13  A    between atoms: _30  and  _31
REMARK   14  A    between atoms: _30  and  _33
REMARK   15  A    between atoms: _33  and  _34
REMARK   16  A    between atoms: _44  and  _46
REMARK   17  A    between atoms: _46  and  _47
REMARK   18  A    between atoms: _46  and  _49
REMARK   19  A    between atoms: _49  and  _50
REMARK   20  A    between atoms: _52  and  _54
REMARK   21  A    between atoms: _54  and  _55
REMARK   22  A    between atoms: _54  and  _57
REMARK   23  A    between atoms: _57  and  _58
REMARK   24  A    between atoms: _63  and  _65
REMARK   25  A    between atoms: _65  and  _66
REMARK   26  A    between atoms: _65  and  _68
REMARK   27  A    between atoms: _68  and  _69
REMARK   28  A    between atoms: _69  and  _70
REMARK   29  A    between atoms: _70  and  _71
REMARK   30  A    between atoms: _80  and  _82
REMARK   31  A    between atoms: _82  and  _83
REMARK   32  A    between atoms: _82  and  _85
REMARK   33  A    between atoms: _85  and  _86
REMARK   34  A    between atoms: _89  and  _91
REMARK   35  A    between atoms: _91  and  _92
REMARK   36  A    between atoms: _91  and  _94
REMARK   37  A    between atoms: _94  and  _95
REMARK   38  A    between atoms: _100  and  _102
REMARK   39  A    between atoms: _102  and  _103
REMARK   40  A    between atoms: _102  and  _105
REMARK   41  A    between atoms: _105  and  _106
REMARK   42  A    between atoms: _106  and  _107
REMARK   43  A    between atoms: _110  and  _112
REMARK   44  A    between atoms: _112  and  _113
REMARK   45  A    between atoms: _112  and  _115
REMARK   46  A    between atoms: _115  and  _116
REMARK   47  A    between atoms: _119  and  _121
REMARK   48  A    between atoms: _121  and  _122
REMARK   49  A    between atoms: _121  and  _124
REMARK   50  A    between atoms: _124  and  _125
REMARK   51  A    between atoms: _125  and  _126
REMARK   52  A    between atoms: _126  and  _127
REMARK   53  A    between atoms: _127  and  _128
REMARK   54  A    between atoms: _132  and  _134
REMARK   55  A    between atoms: _134  and  _135
REMARK   56  A    between atoms: _134  and  _137
REMARK   57  A    between atoms: _137  and  _138
REMARK   58  A    between atoms: _143  and  _145
REMARK   59  A    between atoms: _145  and  _146
REMARK   60  A    between atoms: _145  and  _148
REMARK   61  A    between atoms: _148  and  _149
REMARK   62  A    between atoms: _149  and  _150
REMARK   63  A    between atoms: _153  and  _155
REMARK   64  A    between atoms: _155  and  _156
REMARK   65  A    between atoms: _158  and  _160
REMARK   66  A    between atoms: _160  and  _161
REMARK   67  A    between atoms: _160  and  _163
REMARK   68  A    between atoms: _163  and  _164
REMARK   69  A    between atoms: _167  and  _169
REMARK   70  A    between atoms: _169  and  _170
REMARK   71  A    between atoms: _169  and  _172
REMARK   72  A    between atoms: _172  and  _173
REMARK   73  A    between atoms: _173  and  _174
REMARK   74  A    between atoms: _174  and  _175
REMARK   75  A    between atoms: _184  and  _186
REMARK   76  A    between atoms: _186  and  _187
REMARK   77  A    between atoms: _186  and  _189
REMARK   78  A    between atoms: _189  and  _190
REMARK   79  A    between atoms: _195  and  _197
REMARK   80  A    between atoms: _197  and  _198
REMARK   81  A    between atoms: _197  and  _200
REMARK   82  A    between atoms: _200  and  _201
REMARK   83  A    between atoms: _206  and  _207
REMARK   84  A    between atoms: _209  and  _211
REMARK   85  A    between atoms: _211  and  _212
REMARK   86  A    between atoms: _211  and  _214
REMARK   87  A    between atoms: _214  and  _215
REMARK   88  A    between atoms: _215  and  _216
REMARK   89  A    between atoms: _219  and  _221
REMARK   90  A    between atoms: _221  and  _222
REMARK   91  A    between atoms: _221  and  _224
REMARK   92  A    between atoms: _224  and  _225
REMARK   93  A    between atoms: _228  and  _230
REMARK   94  A    between atoms: _230  and  _231
REMARK   95  A    between atoms: _230  and  _233
REMARK   96  A    between atoms: _233  and  _234
REMARK   97  A    between atoms: _236  and  _238
REMARK   98  A    between atoms: _238  and  _239
REMARK   99  A    between atoms: _238  and  _241
REMARK  100  A    between atoms: _241  and  _242
REMARK  101  A    between atoms: _244  and  _246
REMARK  102  A    between atoms: _246  and  _247
REMARK  103  A    between atoms: _250  and  _252
REMARK  104  A    between atoms: _252  and  _253
REMARK  105  A    between atoms: _252  and  _255
REMARK  106  A    between atoms: _255  and  _256
REMARK  107  A    between atoms: _259  and  _261
REMARK  108  A    between atoms: _261  and  _262
REMARK  109  A    between atoms: _261  and  _264
REMARK  110  A    between atoms: _264  and  _265
REMARK  111  A    between atoms: _270  and  _272
REMARK  112  A    between atoms: _272  and  _273
REMARK  113  A    between atoms: _272  and  _275
REMARK  114  A    between atoms: _278  and  _280
REMARK  115  A    between atoms: _280  and  _281
REMARK  116  A    between atoms: _283  and  _285
REMARK  117  A    between atoms: _285  and  _286
REMARK  118  A    between atoms: _285  and  _288
REMARK  119  A    between atoms: _288  and  _289
REMARK  120  A    between atoms: _299  and  _301
REMARK  121  A    between atoms: _301  and  _302
REMARK  122  A    between atoms: _304  and  _306
REMARK  123  A    between atoms: _306  and  _307
REMARK  124  A    between atoms: _306  and  _309
REMARK  125  A    between atoms: _309  and  _310
REMARK  126  A    between atoms: _310  and  _311
REMARK  127  A    between atoms: _311  and  _312
REMARK  128  A    between atoms: _312  and  _313
REMARK  129  A    between atoms: _317  and  _319
REMARK  130  A    between atoms: _319  and  _320
REMARK  131  A    between atoms: _319  and  _322
REMARK  132  A    between atoms: _322  and  _323
REMARK  133  A    between atoms: _333  and  _335
REMARK  134  A    between atoms: _335  and  _336
REMARK  135  A    between atoms: _335  and  _338
REMARK  136  A    between atoms: _338  and  _339
REMARK  137  A    between atoms: _342  and  _344
REMARK  138  A    between atoms: _344  and  _345
REMARK  139  A    between atoms: _344  and  _347
REMARK  140  A    between atoms: _347  and  _348
REMARK  141  A    between atoms: _353  and  _354
REMARK  142  A    between atoms: _356  and  _358
REMARK  143  A    between atoms: _358  and  _359
REMARK  144  A    between atoms: _358  and  _361
REMARK  145  A    between atoms: _361  and  _362
REMARK  146  A    between atoms: _362  and  _363
REMARK  147  A    between atoms: _366  and  _368
REMARK  148  A    between atoms: _368  and  _369
REMARK  149  A    between atoms: _368  and  _371
REMARK  150  A    between atoms: _371  and  _372
REMARK  151  A    between atoms: _375  and  _377
REMARK  152  A    between atoms: _377  and  _378
REMARK  153  A    between atoms: _377  and  _380
REMARK  154  A    between atoms: _380  and  _381
REMARK  155  A    between atoms: _386  and  _388
REMARK  156  A    between atoms: _388  and  _389
REMARK  157  A    between atoms: _388  and  _391
REMARK  158  A    between atoms: _391  and  _392
REMARK                            x       y       z     vdW  Elec       q    Type
REMARK                         _______ _______ _______ _____ _____    ______ ____
ROOT
ATOM      1  CB  HIS A   1     106.307   3.307  -0.030  0.00  0.00    +0.072 C 
ENDROOT
BRANCH   1   2
ATOM      2  CG  HIS A   1     106.239   4.795   0.108  0.00  0.00    +0.082 A 
ATOM      3  ND1 HIS A   1     105.446   5.418   1.057  0.00  0.00    -0.227 NA
ATOM      4  CE1 HIS A   1     105.563   6.729   0.927  0.00  0.00    +0.199 A 
ATOM      5  NE2 HIS A   1     106.391   6.979  -0.075  0.00  0.00    -0.221 NA
ATOM      6  CD2 HIS A   1     106.822   5.787  -0.610  0.00  0.00    +0.115 A 
ENDBRANCH   1   2
BRANCH   1   7
ATOM      7  CA  HIS A   1     105.411   2.772  -1.161  0.00  0.00    +0.139 C 
BRANCH   7   8
ATOM      8  N   HIS A   1     104.774   1.508  -0.793  0.00  0.00    -0.239 NA
ATOM      9  H   HIS A   1     103.767   1.507  -0.534  0.00  0.00    +0.142 HD
ENDBRANCH   7   8
BRANCH   7  10
ATOM     10  C   HIS A   1     106.171   2.657  -2.484  0.00  0.00    +0.224 C 
ATOM     11  O   HIS A   1     107.303   3.114  -2.609  0.00  0.00    -0.287 OA
ENDBRANCH   7  10
ENDBRANCH   1   7
TORSDOF 4
REMARK  Name = ../refined-set-2016/4cu7/4cu7_pocket.pdb
REMARK  158 active torsions:
REMARK  status: ('A' for Active; 'I' for Inactive)
REMARK    1  A    between atoms: _1  and  _3
REMARK    2  A    between atoms: _3  and  _4
REMARK    3  A    between atoms: _3  and  _6
REMARK    4  A    between atoms: _6  and  _7
REMARK    5  A    between atoms: _7  and  _8
REMARK    6  A    between atoms: _11  and  _13
REMARK    7  A    between atoms: _13  and  _14
REMARK    8  A    between atoms: _13  and  _16
REMARK    9  A    between atoms: _16  and  _17
REMARK   10  A    between atoms: _17  and  _18
REMARK   11  A    between atoms: _18  and  _19
REMARK   12  A    between atoms: _28  and  _30
REMARK   13  A    between atoms: _30  and  _31
REMARK   14  A    between atoms: _30  and  _33
REMARK   15  A    between atoms: _33  and  _34
REMARK   16  A    between atoms: _44  and  _46
REMARK   17  A    between atoms: _46  and  _47
REMARK   18  A    between atoms: _46  and  _49
REMARK   19  A    between atoms: _49  and  _50
REMARK   20  A    between atoms: _52  and  _54
REMARK   21  A    between atoms: _54  and  _55
REMARK   22  A    between atoms: _54  and  _57
REMARK   23  A    between atoms: _57  and  _58
REMARK   24  A    between atoms: _63  and  _65
REMARK   25  A    between atoms: _65  and  _66
REMARK   26  A    between atoms: _65  and  _68
REMARK   27  A    between atoms: _68  and  _69
REMARK   28  A    between atoms: _69  and  _70
REMARK   29  A    between atoms: _70  and  _71
REMARK   30  A    between atoms: _80  and  _82
REMARK   31  A    between atoms: _82  and  _83
REMARK   32  A    between atoms: _82  and  _85
REMARK   33  A    between atoms: _85  and  _86
REMARK   34  A    between atoms: _89  and  _91
REMARK   35  A    between atoms: _91  and  _92
REMARK   36  A    between atoms: _91  and  _94
REMARK   37  A    between atoms: _94  and  _95
REMARK   38  A    between atoms: _100  and  _102
REMARK   39  A    between atoms: _102  and  _103
REMARK   40  A    between atoms: _102  and  _105
REMARK   41  A    between atoms: _105  and  _106
REMARK   42  A    between atoms: _106  and  _107
REMARK   43  A    between atoms: _110  and  _112
REMARK   44  A    between atoms: _112  and  _113
REMARK   45  A    between atoms: _112  and  _115
REMARK   46  A    between atoms: _115  and  _116
REMARK   47  A    between atoms: _119  and  _121
REMARK   48  A    between atoms: _121  and  _122
REMARK   49  A    between atoms: _121  and  _124
REMARK   50  A    between atoms: _124  and  _125
REMARK   51  A    between atoms: _125  and  _126
REMARK   52  A    between atoms: _126  and  _127
REMARK   53  A    between atoms: _127  and  _128
REMARK   54  A    between atoms: _132  and  _134
REMARK   55  A    between atoms: _134  and  _135
REMARK   56  A    between atoms: _134  and  _137
REMARK   57  A    between atoms: _137  and  _138
REMARK   58  A    between atoms: _143  and  _145
REMARK   59  A    between atoms: _145  and  _146
REMARK   60  A    between atoms: _145  and  _148
REMARK   61  A    between atoms: _148  and  _149
REMARK   62  A    between atoms: _149  and  _150
REMARK   63  A    between atoms: _153  and  _155
REMARK   64  A    between atoms: _155  and  _156
REMARK   65  A    between atoms: _158  and  _160
REMARK   66  A    between atoms: _160  and  _161
REMARK   67  A    between atoms: _160  and  _163
REMARK   68  A    between atoms: _163  and  _164
REMARK   69  A    between atoms: _167  and  _169
REMARK   70  A    between atoms: _169  and  _170
REMARK   71  A    between atoms: _169  and  _172
REMARK   72  A    between atoms: _172  and  _173
REMARK   73  A    between atoms: _173  and  _174
REMARK   74  A    between atoms: _174  and  _175
REMARK   75  A    between atoms: _184  and  _186
REMARK   76  A    between atoms: _186  and  _187
REMARK   77  A    between atoms: _186  and  _189
REMARK   78  A    between atoms: _189  and  _190
REMARK   79  A    between atoms: _195  and  _197
REMARK   80  A    between atoms: _197  and  _198
REMARK   81  A    between atoms: _197  and  _200
REMARK   82  A    between atoms: _200  and  _201
REMARK   83  A    between atoms: _206  and  _207
REMARK   84  A    between atoms: _209  and  _211
REMARK   85  A    between atoms: _211  and  _212
REMARK   86  A    between atoms: _211  and  _214
REMARK   87  A    between atoms: _214  and  _215
REMARK   88  A    between atoms: _215  and  _216
REMARK   89  A    between atoms: _219  and  _221
REMARK   90  A    between atoms: _221  and  _222
REMARK   91  A    between atoms: _221  and  _224
REMARK   92  A    between atoms: _224  and  _225
REMARK   93  A    between atoms: _228  and  _230
REMARK   94  A    between atoms: _230  and  _231
REMARK   95  A    between atoms: _230  and  _233
REMARK   96  A    between atoms: _233  and  _234
REMARK   97  A    between atoms: _236  and  _238
REMARK   98  A    between atoms: _238  and  _239
REMARK   99  A    between atoms: _238  and  _241
REMARK  100  A    between atoms: _241  and  _242
REMARK  101  A    between atoms: _244  and  _246
REMARK  102  A    between atoms: _246  and  _247
REMARK  103  A    between atoms: _250  and  _252
REMARK  104  A    between atoms: _252  and  _253
REMARK  105  A    between atoms: _252  and  _255
REMARK  106  A    between atoms: _255  and  _256
REMARK  107  A    between atoms: _259  and  _261
REMARK  108  A    between atoms: _261  and  _262
REMARK  109  A    between atoms: _261  and  _264
REMARK  110  A    between atoms: _264  and  _265
REMARK  111  A    between atoms: _270  and  _272
REMARK  112  A    between atoms: _272  and  _273
REMARK  113  A    between atoms: _272  and  _275
REMARK  114  A    between atoms: _278  and  _280
REMARK  115  A    between atoms: _280  and  _281
REMARK  116  A    between atoms: _283  and  _285
REMARK  117  A    between atoms: _285  and  _286
REMARK  118  A    between atoms: _285  and  _288
REMARK  119  A    between atoms: _288  and  _289
REMARK  120  A    between atoms: _299  and  _301
REMARK  121  A    between atoms: _301  and  _302
REMARK  122  A    between atoms: _304  and  _306
REMARK  123  A    between atoms: _306  and  _307
REMARK  124  A    between atoms: _306  and  _309
REMARK  125  A    between atoms: _309  and  _310
REMARK  126  A    between atoms: _310  and  _311
REMARK  127  A    between atoms: _311  and  _312
REMARK  128  A    between atoms: _312  and  _313
REMARK  129  A    between atoms: _317  and  _319
REMARK  130  A    between atoms: _319  and  _320
REMARK  131  A    between atoms: _319  and  _322
REMARK  132  A    between atoms: _322  and  _323
REMARK  133  A    between atoms: _333  and  _335
REMARK  134  A    between atoms: _335  and  _336
REMARK  135  A    between atoms: _335  and  _338
REMARK  136  A    between atoms: _338  and  _339
REMARK  137  A    between atoms: _342  and  _344
REMARK  138  A    between atoms: _344  and  _345
REMARK  139  A    between atoms: _344  and  _347
REMARK  140  A    between atoms: _347  and  _348
REMARK  141  A    between atoms: _353  and  _354
REMARK  142  A    between atoms: _356  and  _358
REMARK  143  A    between atoms: _358  and  _359
REMARK  144  A    between atoms: _358  and  _361
REMARK  145  A    between atoms: _361  and  _362
REMARK  146  A    between atoms: _362  and  _363
REMARK  147  A    between atoms: _366  and  _368
REMARK  148  A    between atoms: _368  and  _369
REMARK  149  A    between atoms: _368  and  _371
REMARK  150  A    between atoms: _371  and  _372
REMARK  151  A    between atoms: _375  and  _377
REMARK  152  A    between atoms: _377  and  _378
REMARK  153  A    between atoms: _377  and  _380
REMARK  154  A    between atoms: _380  and  _381
REMARK  155  A    between atoms: _386  and  _388
REMARK  156  A    between atoms: _388  and  _389
REMARK  157  A    between atoms: _388  and  _391
REMARK  158  A    between atoms: _391  and  _392
REMARK                            x       y       z     vdW  Elec       q    Type
REMARK                         _______ _______ _______ _____ _____    ______ ____
ROOT
ATOM      1  CA  TRP A   3     102.852   3.511   7.138  0.00  0.00    +0.153 C 
ENDROOT
BRANCH   1   4
ATOM      2  C   GLY A   2     104.272   2.545   5.394  0.00  0.00    +0.243 C 
ATOM      3  O   GLY A   2     104.366   1.498   5.996  0.00  0.00    -0.273 OA
ATOM      4  N   TRP A   3     103.563   3.569   5.851  0.00  0.00    -0.297 N 
ATOM      5  H   TRP A   3     103.508   4.438   5.283  0.00  0.00    +0.150 HD
BRANCH   2   6
ATOM      6  CA  GLY A   2     104.979   2.733   4.055  0.00  0.00    +0.176 C 
BRANCH   6   9
ATOM      7  C   VAL A   1     102.926   3.055   2.773  0.00  0.00    +0.238 C 
ATOM      8  O   VAL A   1     102.381   2.107   3.332  0.00  0.00    -0.274 OA
ATOM      9  N   GLY A   2     104.161   3.462   3.078  0.00  0.00    -0.296 N 
ATOM     10  H   GLY A   2     104.549   4.309   2.616  0.00  0.00    +0.150 HD
BRANCH   7  11
ATOM     11  CA  VAL A   1     102.203   3.838   1.666  0.00  0.00    +0.145 C 
BRANCH  11  12
ATOM     12  CB  VAL A   1     101.890   5.281   2.115  0.00  0.00    +0.025 C 
ATOM     13  CG2 VAL A   1     100.908   5.316   3.318  0.00  0.00    +0.002 C 
ATOM     14  CG1 VAL A   1     101.373   6.088   0.930  0.00  0.00    +0.002 C 
ENDBRANCH  11  12
BRANCH  11  15
ATOM     15  N   VAL A   1     101.019   3.154   1.216  0.00  0.00    -0.238 NA
ATOM     16  H   VAL A   1     100.086   3.564   1.426  0.00  0.00    +0.142 HD
ENDBRANCH  11  15
ENDBRANCH   7  11
ENDBRANCH   6   9
ENDBRANCH   2   6
ENDBRANCH   1   4
BRANCH   1  17
ATOM     17  C   TRP A   3     101.405   3.032   7.021  0.00  0.00    +0.241 C 
ATOM     18  O   TRP A   3     100.684   2.994   8.014  0.00  0.00    -0.273 OA
ATOM     19  N   GLY A   4     100.983   2.664   5.811  0.00  0.00    -0.295 N 
ATOM     20  H   GLY A   4     101.670   2.555   5.038  0.00  0.00    +0.150 HD
BRANCH  19  21
ATOM     21  CA  GLY A   4      99.576   2.414   5.560  0.00  0.00    +0.176 C 
BRANCH  21  22
ATOM     22  C   GLY A   4      99.198   0.944   5.501  0.00  0.00    +0.243 C 
ATOM     23  O   GLY A   4     100.007   0.052   5.796  0.00  0.00    -0.273 OA
ATOM     24  N   LYS A   5      97.948   0.708   5.119  0.00  0.00    -0.298 N 
ATOM     25  H   LYS A   5      97.322   1.521   4.949  0.00  0.00    +0.150 HD
BRANCH  24  26
ATOM     26  CA  LYS A   5      97.410  -0.626   4.926  0.00  0.00    +0.137 C 
BRANCH  26  27
ATOM     27  C   LYS A   5      96.428  -0.571   3.775  0.00  0.00    +0.227 C 
ATOM     28  O   LYS A   5      95.869   0.495   3.455  0.00  0.00    -0.286 OA
ENDBRANCH  26  27
BRANCH  26  29
ATOM     29  CB  LYS A   5      96.640  -1.096   6.165  0.00  0.00    +0.028 C 
BRANCH  29  30
ATOM     30  CG  LYS A   5      97.467  -1.791   7.246  0.00  0.00    -0.000 C 
BRANCH  30  31
ATOM     31  CD  LYS A   5      96.589  -2.094   8.461  0.00  0.00    -0.024 C 
BRANCH  31  32
ATOM     32  CE  LYS A   5      97.222  -3.137   9.381  0.00  0.00    -0.086 C 
BRANCH  32  33
ATOM     33  NZ  LYS A   5      98.674  -2.954   9.638  0.00  0.00    +0.380 N 
ATOM     34  HZ1 LYS A   5      99.011  -3.708  10.271  0.00  0.00    -0.089 HD
ATOM     35  HZ2 LYS A   5      98.832  -2.028  10.085  0.00  0.00    -0.089 HD
ATOM     36  HZ3 LYS A   5      99.192  -2.998   8.738  0.00  0.00    -0.089 HD
ENDBRANCH  32  33
ENDBRANCH  31  32
ENDBRANCH  30  31
ENDBRANCH  29  30
ENDBRANCH  26  29
ENDBRANCH  24  26
ENDBRANCH  21  22
ENDBRANCH  19  21
ENDBRANCH   1  17
BRANCH   1  37
ATOM     37  CB  TRP A   3     102.875   4.876   7.799  0.00  0.00    +0.057 C 
BRANCH  37  38
ATOM     38  CG  TRP A   3     102.319   5.982   6.922  0.00  0.00    -0.002 A 
ATOM     39  CD1 TRP A   3     101.041   6.447   6.914  0.00  0.00    +0.068 A 
ATOM     40  NE1 TRP A   3     100.909   7.464   5.996  0.00  0.00    -0.352 N 
ATOM     41  HE1 TRP A   3     100.032   7.984   5.790  0.00  0.00    +0.166 HD
ATOM     42  CE2 TRP A   3     102.127   7.679   5.396  0.00  0.00    +0.056 A 
ATOM     43  CZ2 TRP A   3     102.491   8.597   4.392  0.00  0.00    +0.017 A 
ATOM     44  CH2 TRP A   3     103.804   8.596   3.957  0.00  0.00    +0.001 A 
ATOM     45  CZ3 TRP A   3     104.769   7.679   4.480  0.00  0.00    +0.000 A 
ATOM     46  CE3 TRP A   3     104.388   6.743   5.485  0.00  0.00    +0.001 A 
ATOM     47  CD2 TRP A   3     103.042   6.752   5.950  0.00  0.00    +0.013 A 
ENDBRANCH  37  38
ENDBRANCH   1  37
TORSDOF 18
REMARK  Name = ../refined-set-2016/4cu7/4cu7_pocket.pdb
REMARK  158 active torsions:
REMARK  status: ('A' for Active; 'I' for Inactive)
REMARK    1  A    between atoms: _1  and  _3
REMARK    2  A    between atoms: _3  and  _4
REMARK    3  A    between atoms: _3  and  _6
REMARK    4  A    between atoms: _6  and  _7
REMARK    5  A    between atoms: _7  and  _8
REMARK    6  A    between atoms: _11  and  _13
REMARK    7  A    between atoms: _13  and  _14
REMARK    8  A    between atoms: _13  and  _16
REMARK    9  A    between atoms: _16  and  _17
REMARK   10  A    between atoms: _17  and  _18
REMARK   11  A    between atoms: _18  and  _19
REMARK   12  A    between atoms: _28  and  _30
REMARK   13  A    between atoms: _30  and  _31
REMARK   14  A    between atoms: _30  and  _33
REMARK   15  A    between atoms: _33  and  _34
REMARK   16  A    between atoms: _44  and  _46
REMARK   17  A    between atoms: _46  and  _47
REMARK   18  A    between atoms: _46  and  _49
REMARK   19  A    between atoms: _49  and  _50
REMARK   20  A    between atoms: _52  and  _54
REMARK   21  A    between atoms: _54  and  _55
REMARK   22  A    between atoms: _54  and  _57
REMARK   23  A    between atoms: _57  and  _58
REMARK   24  A    between atoms: _63  and  _65
REMARK   25  A    between atoms: _65  and  _66
REMARK   26  A    between atoms: _65  and  _68
REMARK   27  A    between atoms: _68  and  _69
REMARK   28  A    between atoms: _69  and  _70
REMARK   29  A    between atoms: _70  and  _71
REMARK   30  A    between atoms: _80  and  _82
REMARK   31  A    between atoms: _82  and  _83
REMARK   32  A    between atoms: _82  and  _85
REMARK   33  A    between atoms: _85  and  _86
REMARK   34  A    between atoms: _89  and  _91
REMARK   35  A    between atoms: _91  and  _92
REMARK   36  A    between atoms: _91  and  _94
REMARK   37  A    between atoms: _94  and  _95
REMARK   38  A    between atoms: _100  and  _102
REMARK   39  A    between atoms: _102  and  _103
REMARK   40  A    between atoms: _102  and  _105
REMARK   41  A    between atoms: _105  and  _106
REMARK   42  A    between atoms: _106  and  _107
REMARK   43  A    between atoms: _110  and  _112
REMARK   44  A    between atoms: _112  and  _113
REMARK   45  A    between atoms: _112  and  _115
REMARK   46  A    between atoms: _115  and  _116
REMARK   47  A    between atoms: _119  and  _121
REMARK   48  A    between atoms: _121  and  _122
REMARK   49  A    between atoms: _121  and  _124
REMARK   50  A    between atoms: _124  and  _125
REMARK   51  A    between atoms: _125  and  _126
REMARK   52  A    between atoms: _126  and  _127
REMARK   53  A    between atoms: _127  and  _128
REMARK   54  A    between atoms: _132  and  _134
REMARK   55  A    between atoms: _134  and  _135
REMARK   56  A    between atoms: _134  and  _137
REMARK   57  A    between atoms: _137  and  _138
REMARK   58  A    between atoms: _143  and  _145
REMARK   59  A    between atoms: _145  and  _146
REMARK   60  A    between atoms: _145  and  _148
REMARK   61  A    between atoms: _148  and  _149
REMARK   62  A    between atoms: _149  and  _150
REMARK   63  A    between atoms: _153  and  _155
REMARK   64  A    between atoms: _155  and  _156
REMARK   65  A    between atoms: _158  and  _160
REMARK   66  A    between atoms: _160  and  _161
REMARK   67  A    between atoms: _160  and  _163
REMARK   68  A    between atoms: _163  and  _164
REMARK   69  A    between atoms: _167  and  _169
REMARK   70  A    between atoms: _169  and  _170
REMARK   71  A    between atoms: _169  and  _172
REMARK   72  A    between atoms: _172  and  _173
REMARK   73  A    between atoms: _173  and  _174
REMARK   74  A    between atoms: _174  and  _175
REMARK   75  A    between atoms: _184  and  _186
REMARK   76  A    between atoms: _186  and  _187
REMARK   77  A    between atoms: _186  and  _189
REMARK   78  A    between atoms: _189  and  _190
REMARK   79  A    between atoms: _195  and  _197
REMARK   80  A    between atoms: _197  and  _198
REMARK   81  A    between atoms: _197  and  _200
REMARK   82  A    between atoms: _200  and  _201
REMARK   83  A    between atoms: _206  and  _207
REMARK   84  A    between atoms: _209  and  _211
REMARK   85  A    between atoms: _211  and  _212
REMARK   86  A    between atoms: _211  and  _214
REMARK   87  A    between atoms: _214  and  _215
REMARK   88  A    between atoms: _215  and  _216
REMARK   89  A    between atoms: _219  and  _221
REMARK   90  A    between atoms: _221  and  _222
REMARK   91  A    between atoms: _221  and  _224
REMARK   92  A    between atoms: _224  and  _225
REMARK   93  A    between atoms: _228  and  _230
REMARK   94  A    between atoms: _230  and  _231
REMARK   95  A    between atoms: _230  and  _233
REMARK   96  A    between atoms: _233  and  _234
REMARK   97  A    between atoms: _236  and  _238
REMARK   98  A    between atoms: _238  and  _239
REMARK   99  A    between atoms: _238  and  _241
REMARK  100  A    between atoms: _241  and  _242
REMARK  101  A    between atoms: _244  and  _246
REMARK  102  A    between atoms: _246  and  _247
REMARK  103  A    between atoms: _250  and  _252
REMARK  104  A    between atoms: _252  and  _253
REMARK  105  A    between atoms: _252  and  _255
REMARK  106  A    between atoms: _255  and  _256
REMARK  107  A    between atoms: _259  and  _261
REMARK  108  A    between atoms: _261  and  _262
REMARK  109  A    between atoms: _261  and  _264
REMARK  110  A    between atoms: _264  and  _265
REMARK  111  A    between atoms: _270  and  _272
REMARK  112  A    between atoms: _272  and  _273
REMARK  113  A    between atoms: _272  and  _275
REMARK  114  A    between atoms: _278  and  _280
REMARK  115  A    between atoms: _280  and  _281
REMARK  116  A    between atoms: _283  and  _285
REMARK  117  A    between atoms: _285  and  _286
REMARK  118  A    between atoms: _285  and  _288
REMARK  119  A    between atoms: _288  and  _289
REMARK  120  A    between atoms: _299  and  _301
REMARK  121  A    between atoms: _301  and  _302
REMARK  122  A    between atoms: _304  and  _306
REMARK  123  A    between atoms: _306  and  _307
REMARK  124  A    between atoms: _306  and  _309
REMARK  125  A    between atoms: _309  and  _310
REMARK  126  A    between atoms: _310  and  _311
REMARK  127  A    between atoms: _311  and  _312
REMARK  128  A    between atoms: _312  and  _313
REMARK  129  A    between atoms: _317  and  _319
REMARK  130  A    between atoms: _319  and  _320
REMARK  131  A    between atoms: _319  and  _322
REMARK  132  A    between atoms: _322  and  _323
REMARK  133  A    between atoms: _333  and  _335
REMARK  134  A    between atoms: _335  and  _336
REMARK  135  A    between atoms: _335  and  _338
REMARK  136  A    between atoms: _338  and  _339
REMARK  137  A    between atoms: _342  and  _344
REMARK  138  A    between atoms: _344  and  _345
REMARK  139  A    between atoms: _344  and  _347
REMARK  140  A    between atoms: _347  and  _348
REMARK  141  A    between atoms: _353  and  _354
REMARK  142  A    between atoms: _356  and  _358
REMARK  143  A    between atoms: _358  and  _359
REMARK  144  A    between atoms: _358  and  _361
REMARK  145  A    between atoms: _361  and  _362
REMARK  146  A    between atoms: _362  and  _363
REMARK  147  A    between atoms: _366  and  _368
REMARK  148  A    between atoms: _368  and  _369
REMARK  149  A    between atoms: _368  and  _371
REMARK  150  A    between atoms: _371  and  _372
REMARK  151  A    between atoms: _375  and  _377
REMARK  152  A    between atoms: _377  and  _378
REMARK  153  A    between atoms: _377  and  _380
REMARK  154  A    between atoms: _380  and  _381
REMARK  155  A    between atoms: _386  and  _388
REMARK  156  A    between atoms: _388  and  _389
REMARK  157  A    between atoms: _388  and  _391
REMARK  158  A    between atoms: _391  and  _392
REMARK                            x       y       z     vdW  Elec       q    Type
REMARK                         _______ _______ _______ _____ _____    ______ ____
ROOT
ATOM      1  CA  TRP A   1      92.342   8.428   4.443  0.00  0.00    +0.149 C 
ENDROOT
BRANCH   1   2
ATOM      2  C   TRP A   1      92.418   7.992   2.978  0.00  0.00    +0.239 C 
ATOM      3  O   TRP A   1      93.229   7.091   2.671  0.00  0.00    -0.274 OA
ATOM      4  N   THR A   2      91.622   8.551   2.045  0.00  0.00    -0.296 N 
ATOM      5  H   THR A   2      91.780   8.243   1.064  0.00  0.00    +0.150 HD
BRANCH   4   6
ATOM      6  CA  THR A   2      90.571   9.531   2.246  0.00  0.00    +0.164 C 
BRANCH   6   7
ATOM      7  CB  THR A   2      90.981  10.917   1.689  0.00  0.00    +0.136 C 
ATOM      8  CG2 THR A   2      92.057  11.571   2.549  0.00  0.00    +0.034 C 
BRANCH   7   9
ATOM      9  OG1 THR A   2      91.502  10.750   0.367  0.00  0.00    -0.382 OA
ATOM     10  HG1 THR A   2      91.766  11.632   0.004  0.00  0.00    +0.210 HD
ENDBRANCH   7   9
ENDBRANCH   6   7
BRANCH   6  11
ATOM     11  C   THR A   2      89.322   9.057   1.460  0.00  0.00    +0.229 C 
ATOM     12  O   THR A   2      89.405   8.178   0.604  0.00  0.00    -0.286 OA
ENDBRANCH   6  11
ENDBRANCH   4   6
ENDBRANCH   1   2
BRANCH   1  13
ATOM     13  N   TRP A   1      91.619   7.417   5.199  0.00  0.00    -0.238 NA
ATOM     14  H   TRP A   1      92.155   6.631   5.619  0.00  0.00    +0.142 HD
ENDBRANCH   1  13
BRANCH   1  15
ATOM     15  CB  TRP A   1      93.789   8.586   5.009  0.00  0.00    +0.054 C 
BRANCH  15  16
ATOM     16  CG  TRP A   1      94.388   9.848   4.524  0.00  0.00    -0.002 A 
ATOM     17  CD2 TRP A   1      94.109  11.168   5.012  0.00  0.00    +0.013 A 
ATOM     18  CE3 TRP A   1      93.312  11.682   6.060  0.00  0.00    +0.001 A 
ATOM     19  CZ3 TRP A   1      93.256  13.062   6.230  0.00  0.00    +0.000 A 
ATOM     20  CH2 TRP A   1      93.982  13.919   5.396  0.00  0.00    +0.001 A 
ATOM     21  CZ2 TRP A   1      94.759  13.442   4.361  0.00  0.00    +0.017 A 
ATOM     22  CE2 TRP A   1      94.815  12.072   4.181  0.00  0.00    +0.056 A 
ATOM     23  NE1 TRP A   1      95.500  11.324   3.247  0.00  0.00    -0.352 N 
ATOM     24  HE1 TRP A   1      96.124  11.708   2.508  0.00  0.00    +0.166 HD
ATOM     25  CD1 TRP A   1      95.230   9.999   3.445  0.00  0.00    +0.068 A 
ENDBRANCH  15  16
ENDBRANCH   1  15
TORSDOF 8
REMARK  Name = ../refined-set-2016/4cu7/4cu7_pocket.pdb
REMARK  158 active torsions:
REMARK  status: ('A' for Active; 'I' for Inactive)
REMARK    1  A    between atoms: _1  and  _3
REMARK    2  A    between atoms: _3  and  _4
REMARK    3  A    between atoms: _3  and  _6
REMARK    4  A    between atoms: _6  and  _7
REMARK    5  A    between atoms: _7  and  _8
REMARK    6  A    between atoms: _11  and  _13
REMARK    7  A    between atoms: _13  and  _14
REMARK    8  A    between atoms: _13  and  _16
REMARK    9  A    between atoms: _16  and  _17
REMARK   10  A    between atoms: _17  and  _18
REMARK   11  A    between atoms: _18  and  _19
REMARK   12  A    between atoms: _28  and  _30
REMARK   13  A    between atoms: _30  and  _31
REMARK   14  A    between atoms: _30  and  _33
REMARK   15  A    between atoms: _33  and  _34
REMARK   16  A    between atoms: _44  and  _46
REMARK   17  A    between atoms: _46  and  _47
REMARK   18  A    between atoms: _46  and  _49
REMARK   19  A    between atoms: _49  and  _50
REMARK   20  A    between atoms: _52  and  _54
REMARK   21  A    between atoms: _54  and  _55
REMARK   22  A    between atoms: _54  and  _57
REMARK   23  A    between atoms: _57  and  _58
REMARK   24  A    between atoms: _63  and  _65
REMARK   25  A    between atoms: _65  and  _66
REMARK   26  A    between atoms: _65  and  _68
REMARK   27  A    between atoms: _68  and  _69
REMARK   28  A    between atoms: _69  and  _70
REMARK   29  A    between atoms: _70  and  _71
REMARK   30  A    between atoms: _80  and  _82
REMARK   31  A    between atoms: _82  and  _83
REMARK   32  A    between atoms: _82  and  _85
REMARK   33  A    between atoms: _85  and  _86
REMARK   34  A    between atoms: _89  and  _91
REMARK   35  A    between atoms: _91  and  _92
REMARK   36  A    between atoms: _91  and  _94
REMARK   37  A    between atoms: _94  and  _95
REMARK   38  A    between atoms: _100  and  _102
REMARK   39  A    between atoms: _102  and  _103
REMARK   40  A    between atoms: _102  and  _105
REMARK   41  A    between atoms: _105  and  _106
REMARK   42  A    between atoms: _106  and  _107
REMARK   43  A    between atoms: _110  and  _112
REMARK   44  A    between atoms: _112  and  _113
REMARK   45  A    between atoms: _112  and  _115
REMARK   46  A    between atoms: _115  and  _116
REMARK   47  A    between atoms: _119  and  _121
REMARK   48  A    between atoms: _121  and  _122
REMARK   49  A    between atoms: _121  and  _124
REMARK   50  A    between atoms: _124  and  _125
REMARK   51  A    between atoms: _125  and  _126
REMARK   52  A    between atoms: _126  and  _127
REMARK   53  A    between atoms: _127  and  _128
REMARK   54  A    between atoms: _132  and  _134
REMARK   55  A    between atoms: _134  and  _135
REMARK   56  A    between atoms: _134  and  _137
REMARK   57  A    between atoms: _137  and  _138
REMARK   58  A    between atoms: _143  and  _145
REMARK   59  A    between atoms: _145  and  _146
REMARK   60  A    between atoms: _145  and  _148
REMARK   61  A    between atoms: _148  and  _149
REMARK   62  A    between atoms: _149  and  _150
REMARK   63  A    between atoms: _153  and  _155
REMARK   64  A    between atoms: _155  and  _156
REMARK   65  A    between atoms: _158  and  _160
REMARK   66  A    between atoms: _160  and  _161
REMARK   67  A    between atoms: _160  and  _163
REMARK   68  A    between atoms: _163  and  _164
REMARK   69  A    between atoms: _167  and  _169
REMARK   70  A    between atoms: _169  and  _170
REMARK   71  A    between atoms: _169  and  _172
REMARK   72  A    between atoms: _172  and  _173
REMARK   73  A    between atoms: _173  and  _174
REMARK   74  A    between atoms: _174  and  _175
REMARK   75  A    between atoms: _184  and  _186
REMARK   76  A    between atoms: _186  and  _187
REMARK   77  A    between atoms: _186  and  _189
REMARK   78  A    between atoms: _189  and  _190
REMARK   79  A    between atoms: _195  and  _197
REMARK   80  A    between atoms: _197  and  _198
REMARK   81  A    between atoms: _197  and  _200
REMARK   82  A    between atoms: _200  and  _201
REMARK   83  A    between atoms: _206  and  _207
REMARK   84  A    between atoms: _209  and  _211
REMARK   85  A    between atoms: _211  and  _212
REMARK   86  A    between atoms: _211  and  _214
REMARK   87  A    between atoms: _214  and  _215
REMARK   88  A    between atoms: _215  and  _216
REMARK   89  A    between atoms: _219  and  _221
REMARK   90  A    between atoms: _221  and  _222
REMARK   91  A    between atoms: _221  and  _224
REMARK   92  A    between atoms: _224  and  _225
REMARK   93  A    between atoms: _228  and  _230
REMARK   94  A    between atoms: _230  and  _231
REMARK   95  A    between atoms: _230  and  _233
REMARK   96  A    between atoms: _233  and  _234
REMARK   97  A    between atoms: _236  and  _238
REMARK   98  A    between atoms: _238  and  _239
REMARK   99  A    between atoms: _238  and  _241
REMARK  100  A    between atoms: _241  and  _242
REMARK  101  A    between atoms: _244  and  _246
REMARK  102  A    between atoms: _246  and  _247
REMARK  103  A    between atoms: _250  and  _252
REMARK  104  A    between atoms: _252  and  _253
REMARK  105  A    between atoms: _252  and  _255
REMARK  106  A    between atoms: _255  and  _256
REMARK  107  A    between atoms: _259  and  _261
REMARK  108  A    between atoms: _261  and  _262
REMARK  109  A    between atoms: _261  and  _264
REMARK  110  A    between atoms: _264  and  _265
REMARK  111  A    between atoms: _270  and  _272
REMARK  112  A    between atoms: _272  and  _273
REMARK  113  A    between atoms: _272  and  _275
REMARK  114  A    between atoms: _278  and  _280
REMARK  115  A    between atoms: _280  and  _281
REMARK  116  A    between atoms: _283  and  _285
REMARK  117  A    between atoms: _285  and  _286
REMARK  118  A    between atoms: _285  and  _288
REMARK  119  A    between atoms: _288  and  _289
REMARK  120  A    between atoms: _299  and  _301
REMARK  121  A    between atoms: _301  and  _302
REMARK  122  A    between atoms: _304  and  _306
REMARK  123  A    between atoms: _306  and  _307
REMARK  124  A    between atoms: _306  and  _309
REMARK  125  A    between atoms: _309  and  _310
REMARK  126  A    between atoms: _310  and  _311
REMARK  127  A    between atoms: _311  and  _312
REMARK  128  A    between atoms: _312  and  _313
REMARK  129  A    between atoms: _317  and  _319
REMARK  130  A    between atoms: _319  and  _320
REMARK  131  A    between atoms: _319  and  _322
REMARK  132  A    between atoms: _322  and  _323
REMARK  133  A    between atoms: _333  and  _335
REMARK  134  A    between atoms: _335  and  _336
REMARK  135  A    between atoms: _335  and  _338
REMARK  136  A    between atoms: _338  and  _339
REMARK  137  A    between atoms: _342  and  _344
REMARK  138  A    between atoms: _344  and  _345
REMARK  139  A    between atoms: _344  and  _347
REMARK  140  A    between atoms: _347  and  _348
REMARK  141  A    between atoms: _353  and  _354
REMARK  142  A    between atoms: _356  and  _358
REMARK  143  A    between atoms: _358  and  _359
REMARK  144  A    between atoms: _358  and  _361
REMARK  145  A    between atoms: _361  and  _362
REMARK  146  A    between atoms: _362  and  _363
REMARK  147  A    between atoms: _366  and  _368
REMARK  148  A    between atoms: _368  and  _369
REMARK  149  A    between atoms: _368  and  _371
REMARK  150  A    between atoms: _371  and  _372
REMARK  151  A    between atoms: _375  and  _377
REMARK  152  A    between atoms: _377  and  _378
REMARK  153  A    between atoms: _377  and  _380
REMARK  154  A    between atoms: _380  and  _381
REMARK  155  A    between atoms: _386  and  _388
REMARK  156  A    between atoms: _388  and  _389
REMARK  157  A    between atoms: _388  and  _391
REMARK  158  A    between atoms: _391  and  _392
REMARK                            x       y       z     vdW  Elec       q    Type
REMARK                         _______ _______ _______ _____ _____    ______ ____
ROOT
ATOM      1  CG  TYR A   1      93.339  15.702  -0.781  0.00  0.00    -0.020 A 
ATOM      2  CD2 TYR A   1      93.131  14.386  -0.370  0.00  0.00    -0.001 A 
ATOM      3  CE2 TYR A   1      94.115  13.677   0.290  0.00  0.00    +0.036 A 
ATOM      4  CZ  TYR A   1      95.323  14.325   0.611  0.00  0.00    +0.134 A 
ATOM      5  CE1 TYR A   1      95.547  15.653   0.256  0.00  0.00    +0.036 A 
ATOM      6  CD1 TYR A   1      94.567  16.328  -0.448  0.00  0.00    -0.001 A 
ENDROOT
BRANCH   4   7
ATOM      7  OH  TYR A   1      96.283  13.620   1.302  0.00  0.00    -0.506 OA
ATOM      8  HH  TYR A   1      96.463  14.070   2.165  0.00  0.00    +0.292 HD
ENDBRANCH   4   7
BRANCH   1   9
ATOM      9  CB  TYR A   1      92.253  16.469  -1.534  0.00  0.00    +0.051 C 
BRANCH   9  10
ATOM     10  CA  TYR A   1      92.194  16.146  -3.037  0.00  0.00    +0.137 C 
BRANCH  10  11
ATOM     11  N   TYR A   1      92.148  14.693  -3.229  0.00  0.00    -0.239 NA
ATOM     12  H   TYR A   1      93.032  14.145  -3.217  0.00  0.00    +0.142 HD
ENDBRANCH  10  11
BRANCH  10  13
ATOM     13  C   TYR A   1      93.445  16.662  -3.749  0.00  0.00    +0.224 C 
ATOM     14  O   TYR A   1      94.362  15.872  -4.048  0.00  0.00    -0.287 OA
ENDBRANCH  10  13
ENDBRANCH   9  10
ENDBRANCH   1   9
TORSDOF 5
REMARK  Name = ../refined-set-2016/4cu7/4cu7_pocket.pdb
REMARK  158 active torsions:
REMARK  status: ('A' for Active; 'I' for Inactive)
REMARK    1  A    between atoms: _1  and  _3
REMARK    2  A    between atoms: _3  and  _4
REMARK    3  A    between atoms: _3  and  _6
REMARK    4  A    between atoms: _6  and  _7
REMARK    5  A    between atoms: _7  and  _8
REMARK    6  A    between atoms: _11  and  _13
REMARK    7  A    between atoms: _13  and  _14
REMARK    8  A    between atoms: _13  and  _16
REMARK    9  A    between atoms: _16  and  _17
REMARK   10  A    between atoms: _17  and  _18
REMARK   11  A    between atoms: _18  and  _19
REMARK   12  A    between atoms: _28  and  _30
REMARK   13  A    between atoms: _30  and  _31
REMARK   14  A    between atoms: _30  and  _33
REMARK   15  A    between atoms: _33  and  _34
REMARK   16  A    between atoms: _44  and  _46
REMARK   17  A    between atoms: _46  and  _47
REMARK   18  A    between atoms: _46  and  _49
REMARK   19  A    between atoms: _49  and  _50
REMARK   20  A    between atoms: _52  and  _54
REMARK   21  A    between atoms: _54  and  _55
REMARK   22  A    between atoms: _54  and  _57
REMARK   23  A    between atoms: _57  and  _58
REMARK   24  A    between atoms: _63  and  _65
REMARK   25  A    between atoms: _65  and  _66
REMARK   26  A    between atoms: _65  and  _68
REMARK   27  A    between atoms: _68  and  _69
REMARK   28  A    between atoms: _69  and  _70
REMARK   29  A    between atoms: _70  and  _71
REMARK   30  A    between atoms: _80  and  _82
REMARK   31  A    between atoms: _82  and  _83
REMARK   32  A    between atoms: _82  and  _85
REMARK   33  A    between atoms: _85  and  _86
REMARK   34  A    between atoms: _89  and  _91
REMARK   35  A    between atoms: _91  and  _92
REMARK   36  A    between atoms: _91  and  _94
REMARK   37  A    between atoms: _94  and  _95
REMARK   38  A    between atoms: _100  and  _102
REMARK   39  A    between atoms: _102  and  _103
REMARK   40  A    between atoms: _102  and  _105
REMARK   41  A    between atoms: _105  and  _106
REMARK   42  A    between atoms: _106  and  _107
REMARK   43  A    between atoms: _110  and  _112
REMARK   44  A    between atoms: _112  and  _113
REMARK   45  A    between atoms: _112  and  _115
REMARK   46  A    between atoms: _115  and  _116
REMARK   47  A    between atoms: _119  and  _121
REMARK   48  A    between atoms: _121  and  _122
REMARK   49  A    between atoms: _121  and  _124
REMARK   50  A    between atoms: _124  and  _125
REMARK   51  A    between atoms: _125  and  _126
REMARK   52  A    between atoms: _126  and  _127
REMARK   53  A    between atoms: _127  and  _128
REMARK   54  A    between atoms: _132  and  _134
REMARK   55  A    between atoms: _134  and  _135
REMARK   56  A    between atoms: _134  and  _137
REMARK   57  A    between atoms: _137  and  _138
REMARK   58  A    between atoms: _143  and  _145
REMARK   59  A    between atoms: _145  and  _146
REMARK   60  A    between atoms: _145  and  _148
REMARK   61  A    between atoms: _148  and  _149
REMARK   62  A    between atoms: _149  and  _150
REMARK   63  A    between atoms: _153  and  _155
REMARK   64  A    between atoms: _155  and  _156
REMARK   65  A    between atoms: _158  and  _160
REMARK   66  A    between atoms: _160  and  _161
REMARK   67  A    between atoms: _160  and  _163
REMARK   68  A    between atoms: _163  and  _164
REMARK   69  A    between atoms: _167  and  _169
REMARK   70  A    between atoms: _169  and  _170
REMARK   71  A    between atoms: _169  and  _172
REMARK   72  A    between atoms: _172  and  _173
REMARK   73  A    between atoms: _173  and  _174
REMARK   74  A    between atoms: _174  and  _175
REMARK   75  A    between atoms: _184  and  _186
REMARK   76  A    between atoms: _186  and  _187
REMARK   77  A    between atoms: _186  and  _189
REMARK   78  A    between atoms: _189  and  _190
REMARK   79  A    between atoms: _195  and  _197
REMARK   80  A    between atoms: _197  and  _198
REMARK   81  A    between atoms: _197  and  _200
REMARK   82  A    between atoms: _200  and  _201
REMARK   83  A    between atoms: _206  and  _207
REMARK   84  A    between atoms: _209  and  _211
REMARK   85  A    between atoms: _211  and  _212
REMARK   86  A    between atoms: _211  and  _214
REMARK   87  A    between atoms: _214  and  _215
REMARK   88  A    between atoms: _215  and  _216
REMARK   89  A    between atoms: _219  and  _221
REMARK   90  A    between atoms: _221  and  _222
REMARK   91  A    between atoms: _221  and  _224
REMARK   92  A    between atoms: _224  and  _225
REMARK   93  A    between atoms: _228  and  _230
REMARK   94  A    between atoms: _230  and  _231
REMARK   95  A    between atoms: _230  and  _233
REMARK   96  A    between atoms: _233  and  _234
REMARK   97  A    between atoms: _236  and  _238
REMARK   98  A    between atoms: _238  and  _239
REMARK   99  A    between atoms: _238  and  _241
REMARK  100  A    between atoms: _241  and  _242
REMARK  101  A    between atoms: _244  and  _246
REMARK  102  A    between atoms: _246  and  _247
REMARK  103  A    between atoms: _250  and  _252
REMARK  104  A    between atoms: _252  and  _253
REMARK  105  A    between atoms: _252  and  _255
REMARK  106  A    between atoms: _255  and  _256
REMARK  107  A    between atoms: _259  and  _261
REMARK  108  A    between atoms: _261  and  _262
REMARK  109  A    between atoms: _261  and  _264
REMARK  110  A    between atoms: _264  and  _265
REMARK  111  A    between atoms: _270  and  _272
REMARK  112  A    between atoms: _272  and  _273
REMARK  113  A    between atoms: _272  and  _275
REMARK  114  A    between atoms: _278  and  _280
REMARK  115  A    between atoms: _280  and  _281
REMARK  116  A    between atoms: _283  and  _285
REMARK  117  A    between atoms: _285  and  _286
REMARK  118  A    between atoms: _285  and  _288
REMARK  119  A    between atoms: _288  and  _289
REMARK  120  A    between atoms: _299  and  _301
REMARK  121  A    between atoms: _301  and  _302
REMARK  122  A    between atoms: _304  and  _306
REMARK  123  A    between atoms: _306  and  _307
REMARK  124  A    between atoms: _306  and  _309
REMARK  125  A    between atoms: _309  and  _310
REMARK  126  A    between atoms: _310  and  _311
REMARK  127  A    between atoms: _311  and  _312
REMARK  128  A    between atoms: _312  and  _313
REMARK  129  A    between atoms: _317  and  _319
REMARK  130  A    between atoms: _319  and  _320
REMARK  131  A    between atoms: _319  and  _322
REMARK  132  A    between atoms: _322  and  _323
REMARK  133  A    between atoms: _333  and  _335
REMARK  134  A    between atoms: _335  and  _336
REMARK  135  A    between atoms: _335  and  _338
REMARK  136  A    between atoms: _338  and  _339
REMARK  137  A    between atoms: _342  and  _344
REMARK  138  A    between atoms: _344  and  _345
REMARK  139  A    between atoms: _344  and  _347
REMARK  140  A    between atoms: _347  and  _348
REMARK  141  A    between atoms: _353  and  _354
REMARK  142  A    between atoms: _356  and  _358
REMARK  143  A    between atoms: _358  and  _359
REMARK  144  A    between atoms: _358  and  _361
REMARK  145  A    between atoms: _361  and  _362
REMARK  146  A    between atoms: _362  and  _363
REMARK  147  A    between atoms: _366  and  _368
REMARK  148  A    between atoms: _368  and  _369
REMARK  149  A    between atoms: _368  and  _371
REMARK  150  A    between atoms: _371  and  _372
REMARK  151  A    between atoms: _375  and  _377
REMARK  152  A    between atoms: _377  and  _378
REMARK  153  A    between atoms: _377  and  _380
REMARK  154  A    between atoms: _380  and  _381
REMARK  155  A    between atoms: _386  and  _388
REMARK  156  A    between atoms: _388  and  _389
REMARK  157  A    between atoms: _388  and  _391
REMARK  158  A    between atoms: _391  and  _392
REMARK                            x       y       z     vdW  Elec       q    Type
REMARK                         _______ _______ _______ _____ _____    ______ ____
ROOT
ATOM      1  CA  GLU A   1      99.873  15.594  -1.221  0.00  0.00    +0.134 C 
ENDROOT
BRANCH   1   2
ATOM      2  N   GLU A   1      99.369  16.828  -1.823  0.00  0.00    -0.239 NA
ATOM      3  H   GLU A   1      99.678  17.726  -1.399  0.00  0.00    +0.142 HD
ENDBRANCH   1   2
BRANCH   1   4
ATOM      4  C   GLU A   1      99.912  14.357  -2.125  0.00  0.00    +0.224 C 
ATOM      5  O   GLU A   1      99.234  13.376  -1.852  0.00  0.00    -0.287 OA
ENDBRANCH   1   4
BRANCH   1   6
ATOM      6  CB  GLU A   1      99.180  15.326   0.131  0.00  0.00    +0.037 C 
BRANCH   6   7
ATOM      7  CG  GLU A   1      99.978  14.372   1.011  0.00  0.00    +0.116 C 
BRANCH   7   8
ATOM      8  CD  GLU A   1      99.430  14.260   2.424  0.00  0.00    +0.365 C 
ATOM      9  OE2 GLU A   1     100.198  13.831   3.328  0.00  0.00    -0.246 OA
ATOM     10  OE1 GLU A   1      98.228  14.577   2.638  0.00  0.00    -0.246 OA
ENDBRANCH   7   8
ENDBRANCH   6   7
ENDBRANCH   1   6
TORSDOF 5
REMARK  Name = ../refined-set-2016/4cu7/4cu7_pocket.pdb
REMARK  158 active torsions:
REMARK  status: ('A' for Active; 'I' for Inactive)
REMARK    1  A    between atoms: _1  and  _3
REMARK    2  A    between atoms: _3  and  _4
REMARK    3  A    between atoms: _3  and  _6
REMARK    4  A    between atoms: _6  and  _7
REMARK    5  A    between atoms: _7  and  _8
REMARK    6  A    between atoms: _11  and  _13
REMARK    7  A    between atoms: _13  and  _14
REMARK    8  A    between atoms: _13  and  _16
REMARK    9  A    between atoms: _16  and  _17
REMARK   10  A    between atoms: _17  and  _18
REMARK   11  A    between atoms: _18  and  _19
REMARK   12  A    between atoms: _28  and  _30
REMARK   13  A    between atoms: _30  and  _31
REMARK   14  A    between atoms: _30  and  _33
REMARK   15  A    between atoms: _33  and  _34
REMARK   16  A    between atoms: _44  and  _46
REMARK   17  A    between atoms: _46  and  _47
REMARK   18  A    between atoms: _46  and  _49
REMARK   19  A    between atoms: _49  and  _50
REMARK   20  A    between atoms: _52  and  _54
REMARK   21  A    between atoms: _54  and  _55
REMARK   22  A    between atoms: _54  and  _57
REMARK   23  A    between atoms: _57  and  _58
REMARK   24  A    between atoms: _63  and  _65
REMARK   25  A    between atoms: _65  and  _66
REMARK   26  A    between atoms: _65  and  _68
REMARK   27  A    between atoms: _68  and  _69
REMARK   28  A    between atoms: _69  and  _70
REMARK   29  A    between atoms: _70  and  _71
REMARK   30  A    between atoms: _80  and  _82
REMARK   31  A    between atoms: _82  and  _83
REMARK   32  A    between atoms: _82  and  _85
REMARK   33  A    between atoms: _85  and  _86
REMARK   34  A    between atoms: _89  and  _91
REMARK   35  A    between atoms: _91  and  _92
REMARK   36  A    between atoms: _91  and  _94
REMARK   37  A    between atoms: _94  and  _95
REMARK   38  A    between atoms: _100  and  _102
REMARK   39  A    between atoms: _102  and  _103
REMARK   40  A    between atoms: _102  and  _105
REMARK   41  A    between atoms: _105  and  _106
REMARK   42  A    between atoms: _106  and  _107
REMARK   43  A    between atoms: _110  and  _112
REMARK   44  A    between atoms: _112  and  _113
REMARK   45  A    between atoms: _112  and  _115
REMARK   46  A    between atoms: _115  and  _116
REMARK   47  A    between atoms: _119  and  _121
REMARK   48  A    between atoms: _121  and  _122
REMARK   49  A    between atoms: _121  and  _124
REMARK   50  A    between atoms: _124  and  _125
REMARK   51  A    between atoms: _125  and  _126
REMARK   52  A    between atoms: _126  and  _127
REMARK   53  A    between atoms: _127  and  _128
REMARK   54  A    between atoms: _132  and  _134
REMARK   55  A    between atoms: _134  and  _135
REMARK   56  A    between atoms: _134  and  _137
REMARK   57  A    between atoms: _137  and  _138
REMARK   58  A    between atoms: _143  and  _145
REMARK   59  A    between atoms: _145  and  _146
REMARK   60  A    between atoms: _145  and  _148
REMARK   61  A    between atoms: _148  and  _149
REMARK   62  A    between atoms: _149  and  _150
REMARK   63  A    between atoms: _153  and  _155
REMARK   64  A    between atoms: _155  and  _156
REMARK   65  A    between atoms: _158  and  _160
REMARK   66  A    between atoms: _160  and  _161
REMARK   67  A    between atoms: _160  and  _163
REMARK   68  A    between atoms: _163  and  _164
REMARK   69  A    between atoms: _167  and  _169
REMARK   70  A    between atoms: _169  and  _170
REMARK   71  A    between atoms: _169  and  _172
REMARK   72  A    between atoms: _172  and  _173
REMARK   73  A    between atoms: _173  and  _174
REMARK   74  A    between atoms: _174  and  _175
REMARK   75  A    between atoms: _184  and  _186
REMARK   76  A    between atoms: _186  and  _187
REMARK   77  A    between atoms: _186  and  _189
REMARK   78  A    between atoms: _189  and  _190
REMARK   79  A    between atoms: _195  and  _197
REMARK   80  A    between atoms: _197  and  _198
REMARK   81  A    between atoms: _197  and  _200
REMARK   82  A    between atoms: _200  and  _201
REMARK   83  A    between atoms: _206  and  _207
REMARK   84  A    between atoms: _209  and  _211
REMARK   85  A    between atoms: _211  and  _212
REMARK   86  A    between atoms: _211  and  _214
REMARK   87  A    between atoms: _214  and  _215
REMARK   88  A    between atoms: _215  and  _216
REMARK   89  A    between atoms: _219  and  _221
REMARK   90  A    between atoms: _221  and  _222
REMARK   91  A    between atoms: _221  and  _224
REMARK   92  A    between atoms: _224  and  _225
REMARK   93  A    between atoms: _228  and  _230
REMARK   94  A    between atoms: _230  and  _231
REMARK   95  A    between atoms: _230  and  _233
REMARK   96  A    between atoms: _233  and  _234
REMARK   97  A    between atoms: _236  and  _238
REMARK   98  A    between atoms: _238  and  _239
REMARK   99  A    between atoms: _238  and  _241
REMARK  100  A    between atoms: _241  and  _242
REMARK  101  A    between atoms: _244  and  _246
REMARK  102  A    between atoms: _246  and  _247
REMARK  103  A    between atoms: _250  and  _252
REMARK  104  A    between atoms: _252  and  _253
REMARK  105  A    between atoms: _252  and  _255
REMARK  106  A    between atoms: _255  and  _256
REMARK  107  A    between atoms: _259  and  _261
REMARK  108  A    between atoms: _261  and  _262
REMARK  109  A    between atoms: _261  and  _264
REMARK  110  A    between atoms: _264  and  _265
REMARK  111  A    between atoms: _270  and  _272
REMARK  112  A    between atoms: _272  and  _273
REMARK  113  A    between atoms: _272  and  _275
REMARK  114  A    between atoms: _278  and  _280
REMARK  115  A    between atoms: _280  and  _281
REMARK  116  A    between atoms: _283  and  _285
REMARK  117  A    between atoms: _285  and  _286
REMARK  118  A    between atoms: _285  and  _288
REMARK  119  A    between atoms: _288  and  _289
REMARK  120  A    between atoms: _299  and  _301
REMARK  121  A    between atoms: _301  and  _302
REMARK  122  A    between atoms: _304  and  _306
REMARK  123  A    between atoms: _306  and  _307
REMARK  124  A    between atoms: _306  and  _309
REMARK  125  A    between atoms: _309  and  _310
REMARK  126  A    between atoms: _310  and  _311
REMARK  127  A    between atoms: _311  and  _312
REMARK  128  A    between atoms: _312  and  _313
REMARK  129  A    between atoms: _317  and  _319
REMARK  130  A    between atoms: _319  and  _320
REMARK  131  A    between atoms: _319  and  _322
REMARK  132  A    between atoms: _322  and  _323
REMARK  133  A    between atoms: _333  and  _335
REMARK  134  A    between atoms: _335  and  _336
REMARK  135  A    between atoms: _335  and  _338
REMARK  136  A    between atoms: _338  and  _339
REMARK  137  A    between atoms: _342  and  _344
REMARK  138  A    between atoms: _344  and  _345
REMARK  139  A    between atoms: _344  and  _347
REMARK  140  A    between atoms: _347  and  _348
REMARK  141  A    between atoms: _353  and  _354
REMARK  142  A    between atoms: _356  and  _358
REMARK  143  A    between atoms: _358  and  _359
REMARK  144  A    between atoms: _358  and  _361
REMARK  145  A    between atoms: _361  and  _362
REMARK  146  A    between atoms: _362  and  _363
REMARK  147  A    between atoms: _366  and  _368
REMARK  148  A    between atoms: _368  and  _369
REMARK  149  A    between atoms: _368  and  _371
REMARK  150  A    between atoms: _371  and  _372
REMARK  151  A    between atoms: _375  and  _377
REMARK  152  A    between atoms: _377  and  _378
REMARK  153  A    between atoms: _377  and  _380
REMARK  154  A    between atoms: _380  and  _381
REMARK  155  A    between atoms: _386  and  _388
REMARK  156  A    between atoms: _388  and  _389
REMARK  157  A    between atoms: _388  and  _391
REMARK  158  A    between atoms: _391  and  _392
REMARK                            x       y       z     vdW  Elec       q    Type
REMARK                         _______ _______ _______ _____ _____    ______ ____
ROOT
ATOM      1  CA  THR A   1     102.394  10.550  -2.045  0.00  0.00    +0.160 C 
ENDROOT
BRANCH   1   2
ATOM      2  N   THR A   1     101.705  11.733  -2.523  0.00  0.00    -0.237 NA
ATOM      3  H   THR A   1     101.210  12.334  -1.834  0.00  0.00    +0.142 HD
ENDBRANCH   1   2
BRANCH   1   4
ATOM      4  CB  THR A   1     102.079  10.401  -0.548  0.00  0.00    +0.134 C 
ATOM      5  CG2 THR A   1     102.973   9.318   0.115  0.00  0.00    +0.034 C 
BRANCH   4   6
ATOM      6  OG1 THR A   1     102.284  11.688   0.071  0.00  0.00    -0.383 OA
ATOM      7  HG1 THR A   1     102.088  11.622   1.039  0.00  0.00    +0.210 HD
ENDBRANCH   4   6
ENDBRANCH   1   4
BRANCH   1   8
ATOM      8  C   THR A   1     101.871   9.336  -2.810  0.00  0.00    +0.227 C 
ATOM      9  O   THR A   1     100.666   9.203  -2.957  0.00  0.00    -0.287 OA
ENDBRANCH   1   8
TORSDOF 4
REMARK  Name = ../refined-set-2016/4cu7/4cu7_pocket.pdb
REMARK  158 active torsions:
REMARK  status: ('A' for Active; 'I' for Inactive)
REMARK    1  A    between atoms: _1  and  _3
REMARK    2  A    between atoms: _3  and  _4
REMARK    3  A    between atoms: _3  and  _6
REMARK    4  A    between atoms: _6  and  _7
REMARK    5  A    between atoms: _7  and  _8
REMARK    6  A    between atoms: _11  and  _13
REMARK    7  A    between atoms: _13  and  _14
REMARK    8  A    between atoms: _13  and  _16
REMARK    9  A    between atoms: _16  and  _17
REMARK   10  A    between atoms: _17  and  _18
REMARK   11  A    between atoms: _18  and  _19
REMARK   12  A    between atoms: _28  and  _30
REMARK   13  A    between atoms: _30  and  _31
REMARK   14  A    between atoms: _30  and  _33
REMARK   15  A    between atoms: _33  and  _34
REMARK   16  A    between atoms: _44  and  _46
REMARK   17  A    between atoms: _46  and  _47
REMARK   18  A    between atoms: _46  and  _49
REMARK   19  A    between atoms: _49  and  _50
REMARK   20  A    between atoms: _52  and  _54
REMARK   21  A    between atoms: _54  and  _55
REMARK   22  A    between atoms: _54  and  _57
REMARK   23  A    between atoms: _57  and  _58
REMARK   24  A    between atoms: _63  and  _65
REMARK   25  A    between atoms: _65  and  _66
REMARK   26  A    between atoms: _65  and  _68
REMARK   27  A    between atoms: _68  and  _69
REMARK   28  A    between atoms: _69  and  _70
REMARK   29  A    between atoms: _70  and  _71
REMARK   30  A    between atoms: _80  and  _82
REMARK   31  A    between atoms: _82  and  _83
REMARK   32  A    between atoms: _82  and  _85
REMARK   33  A    between atoms: _85  and  _86
REMARK   34  A    between atoms: _89  and  _91
REMARK   35  A    between atoms: _91  and  _92
REMARK   36  A    between atoms: _91  and  _94
REMARK   37  A    between atoms: _94  and  _95
REMARK   38  A    between atoms: _100  and  _102
REMARK   39  A    between atoms: _102  and  _103
REMARK   40  A    between atoms: _102  and  _105
REMARK   41  A    between atoms: _105  and  _106
REMARK   42  A    between atoms: _106  and  _107
REMARK   43  A    between atoms: _110  and  _112
REMARK   44  A    between atoms: _112  and  _113
REMARK   45  A    between atoms: _112  and  _115
REMARK   46  A    between atoms: _115  and  _116
REMARK   47  A    between atoms: _119  and  _121
REMARK   48  A    between atoms: _121  and  _122
REMARK   49  A    between atoms: _121  and  _124
REMARK   50  A    between atoms: _124  and  _125
REMARK   51  A    between atoms: _125  and  _126
REMARK   52  A    between atoms: _126  and  _127
REMARK   53  A    between atoms: _127  and  _128
REMARK   54  A    between atoms: _132  and  _134
REMARK   55  A    between atoms: _134  and  _135
REMARK   56  A    between atoms: _134  and  _137
REMARK   57  A    between atoms: _137  and  _138
REMARK   58  A    between atoms: _143  and  _145
REMARK   59  A    between atoms: _145  and  _146
REMARK   60  A    between atoms: _145  and  _148
REMARK   61  A    between atoms: _148  and  _149
REMARK   62  A    between atoms: _149  and  _150
REMARK   63  A    between atoms: _153  and  _155
REMARK   64  A    between atoms: _155  and  _156
REMARK   65  A    between atoms: _158  and  _160
REMARK   66  A    between atoms: _160  and  _161
REMARK   67  A    between atoms: _160  and  _163
REMARK   68  A    between atoms: _163  and  _164
REMARK   69  A    between atoms: _167  and  _169
REMARK   70  A    between atoms: _169  and  _170
REMARK   71  A    between atoms: _169  and  _172
REMARK   72  A    between atoms: _172  and  _173
REMARK   73  A    between atoms: _173  and  _174
REMARK   74  A    between atoms: _174  and  _175
REMARK   75  A    between atoms: _184  and  _186
REMARK   76  A    between atoms: _186  and  _187
REMARK   77  A    between atoms: _186  and  _189
REMARK   78  A    between atoms: _189  and  _190
REMARK   79  A    between atoms: _195  and  _197
REMARK   80  A    between atoms: _197  and  _198
REMARK   81  A    between atoms: _197  and  _200
REMARK   82  A    between atoms: _200  and  _201
REMARK   83  A    between atoms: _206  and  _207
REMARK   84  A    between atoms: _209  and  _211
REMARK   85  A    between atoms: _211  and  _212
REMARK   86  A    between atoms: _211  and  _214
REMARK   87  A    between atoms: _214  and  _215
REMARK   88  A    between atoms: _215  and  _216
REMARK   89  A    between atoms: _219  and  _221
REMARK   90  A    between atoms: _221  and  _222
REMARK   91  A    between atoms: _221  and  _224
REMARK   92  A    between atoms: _224  and  _225
REMARK   93  A    between atoms: _228  and  _230
REMARK   94  A    between atoms: _230  and  _231
REMARK   95  A    between atoms: _230  and  _233
REMARK   96  A    between atoms: _233  and  _234
REMARK   97  A    between atoms: _236  and  _238
REMARK   98  A    between atoms: _238  and  _239
REMARK   99  A    between atoms: _238  and  _241
REMARK  100  A    between atoms: _241  and  _242
REMARK  101  A    between atoms: _244  and  _246
REMARK  102  A    between atoms: _246  and  _247
REMARK  103  A    between atoms: _250  and  _252
REMARK  104  A    between atoms: _252  and  _253
REMARK  105  A    between atoms: _252  and  _255
REMARK  106  A    between atoms: _255  and  _256
REMARK  107  A    between atoms: _259  and  _261
REMARK  108  A    between atoms: _261  and  _262
REMARK  109  A    between atoms: _261  and  _264
REMARK  110  A    between atoms: _264  and  _265
REMARK  111  A    between atoms: _270  and  _272
REMARK  112  A    between atoms: _272  and  _273
REMARK  113  A    between atoms: _272  and  _275
REMARK  114  A    between atoms: _278  and  _280
REMARK  115  A    between atoms: _280  and  _281
REMARK  116  A    between atoms: _283  and  _285
REMARK  117  A    between atoms: _285  and  _286
REMARK  118  A    between atoms: _285  and  _288
REMARK  119  A    between atoms: _288  and  _289
REMARK  120  A    between atoms: _299  and  _301
REMARK  121  A    between atoms: _301  and  _302
REMARK  122  A    between atoms: _304  and  _306
REMARK  123  A    between atoms: _306  and  _307
REMARK  124  A    between atoms: _306  and  _309
REMARK  125  A    between atoms: _309  and  _310
REMARK  126  A    between atoms: _310  and  _311
REMARK  127  A    between atoms: _311  and  _312
REMARK  128  A    between atoms: _312  and  _313
REMARK  129  A    between atoms: _317  and  _319
REMARK  130  A    between atoms: _319  and  _320
REMARK  131  A    between atoms: _319  and  _322
REMARK  132  A    between atoms: _322  and  _323
REMARK  133  A    between atoms: _333  and  _335
REMARK  134  A    between atoms: _335  and  _336
REMARK  135  A    between atoms: _335  and  _338
REMARK  136  A    between atoms: _338  and  _339
REMARK  137  A    between atoms: _342  and  _344
REMARK  138  A    between atoms: _344  and  _345
REMARK  139  A    between atoms: _344  and  _347
REMARK  140  A    between atoms: _347  and  _348
REMARK  141  A    between atoms: _353  and  _354
REMARK  142  A    between atoms: _356  and  _358
REMARK  143  A    between atoms: _358  and  _359
REMARK  144  A    between atoms: _358  and  _361
REMARK  145  A    between atoms: _361  and  _362
REMARK  146  A    between atoms: _362  and  _363
REMARK  147  A    between atoms: _366  and  _368
REMARK  148  A    between atoms: _368  and  _369
REMARK  149  A    between atoms: _368  and  _371
REMARK  150  A    between atoms: _371  and  _372
REMARK  151  A    between atoms: _375  and  _377
REMARK  152  A    between atoms: _377  and  _378
REMARK  153  A    between atoms: _377  and  _380
REMARK  154  A    between atoms: _380  and  _381
REMARK  155  A    between atoms: _386  and  _388
REMARK  156  A    between atoms: _388  and  _389
REMARK  157  A    between atoms: _388  and  _391
REMARK  158  A    between atoms: _391  and  _392
REMARK                            x       y       z     vdW  Elec       q    Type
REMARK                         _______ _______ _______ _____ _____    ______ ____
ROOT
ATOM      1  CB  HIS A   1     105.505  13.084  -0.673  0.00  0.00    +0.072 C 
ENDROOT
BRANCH   1   2
ATOM      2  CG  HIS A   1     105.077  14.191   0.232  0.00  0.00    +0.082 A 
ATOM      3  ND1 HIS A   1     105.966  15.083   0.789  0.00  0.00    -0.227 NA
ATOM      4  CE1 HIS A   1     105.309  15.931   1.558  0.00  0.00    +0.199 A 
ATOM      5  NE2 HIS A   1     104.025  15.624   1.514  0.00  0.00    -0.221 NA
ATOM      6  CD2 HIS A   1     103.851  14.547   0.682  0.00  0.00    +0.115 A 
ENDBRANCH   1   2
BRANCH   1   7
ATOM      7  CA  HIS A   1     105.621  13.506  -2.122  0.00  0.00    +0.139 C 
BRANCH   7   8
ATOM      8  N   HIS A   1     105.703  12.325  -2.950  0.00  0.00    -0.239 NA
ATOM      9  H   HIS A   1     105.670  11.384  -2.508  0.00  0.00    +0.142 HD
ENDBRANCH   7   8
BRANCH   7  10
ATOM     10  C   HIS A   1     106.841  14.440  -2.259  0.00  0.00    +0.224 C 
ATOM     11  O   HIS A   1     107.979  14.048  -1.992  0.00  0.00    -0.287 OA
ENDBRANCH   7  10
ENDBRANCH   1   7
TORSDOF 4
REMARK  Name = ../refined-set-2016/4cu7/4cu7_pocket.pdb
REMARK  158 active torsions:
REMARK  status: ('A' for Active; 'I' for Inactive)
REMARK    1  A    between atoms: _1  and  _3
REMARK    2  A    between atoms: _3  and  _4
REMARK    3  A    between atoms: _3  and  _6
REMARK    4  A    between atoms: _6  and  _7
REMARK    5  A    between atoms: _7  and  _8
REMARK    6  A    between atoms: _11  and  _13
REMARK    7  A    between atoms: _13  and  _14
REMARK    8  A    between atoms: _13  and  _16
REMARK    9  A    between atoms: _16  and  _17
REMARK   10  A    between atoms: _17  and  _18
REMARK   11  A    between atoms: _18  and  _19
REMARK   12  A    between atoms: _28  and  _30
REMARK   13  A    between atoms: _30  and  _31
REMARK   14  A    between atoms: _30  and  _33
REMARK   15  A    between atoms: _33  and  _34
REMARK   16  A    between atoms: _44  and  _46
REMARK   17  A    between atoms: _46  and  _47
REMARK   18  A    between atoms: _46  and  _49
REMARK   19  A    between atoms: _49  and  _50
REMARK   20  A    between atoms: _52  and  _54
REMARK   21  A    between atoms: _54  and  _55
REMARK   22  A    between atoms: _54  and  _57
REMARK   23  A    between atoms: _57  and  _58
REMARK   24  A    between atoms: _63  and  _65
REMARK   25  A    between atoms: _65  and  _66
REMARK   26  A    between atoms: _65  and  _68
REMARK   27  A    between atoms: _68  and  _69
REMARK   28  A    between atoms: _69  and  _70
REMARK   29  A    between atoms: _70  and  _71
REMARK   30  A    between atoms: _80  and  _82
REMARK   31  A    between atoms: _82  and  _83
REMARK   32  A    between atoms: _82  and  _85
REMARK   33  A    between atoms: _85  and  _86
REMARK   34  A    between atoms: _89  and  _91
REMARK   35  A    between atoms: _91  and  _92
REMARK   36  A    between atoms: _91  and  _94
REMARK   37  A    between atoms: _94  and  _95
REMARK   38  A    between atoms: _100  and  _102
REMARK   39  A    between atoms: _102  and  _103
REMARK   40  A    between atoms: _102  and  _105
REMARK   41  A    between atoms: _105  and  _106
REMARK   42  A    between atoms: _106  and  _107
REMARK   43  A    between atoms: _110  and  _112
REMARK   44  A    between atoms: _112  and  _113
REMARK   45  A    between atoms: _112  and  _115
REMARK   46  A    between atoms: _115  and  _116
REMARK   47  A    between atoms: _119  and  _121
REMARK   48  A    between atoms: _121  and  _122
REMARK   49  A    between atoms: _121  and  _124
REMARK   50  A    between atoms: _124  and  _125
REMARK   51  A    between atoms: _125  and  _126
REMARK   52  A    between atoms: _126  and  _127
REMARK   53  A    between atoms: _127  and  _128
REMARK   54  A    between atoms: _132  and  _134
REMARK   55  A    between atoms: _134  and  _135
REMARK   56  A    between atoms: _134  and  _137
REMARK   57  A    between atoms: _137  and  _138
REMARK   58  A    between atoms: _143  and  _145
REMARK   59  A    between atoms: _145  and  _146
REMARK   60  A    between atoms: _145  and  _148
REMARK   61  A    between atoms: _148  and  _149
REMARK   62  A    between atoms: _149  and  _150
REMARK   63  A    between atoms: _153  and  _155
REMARK   64  A    between atoms: _155  and  _156
REMARK   65  A    between atoms: _158  and  _160
REMARK   66  A    between atoms: _160  and  _161
REMARK   67  A    between atoms: _160  and  _163
REMARK   68  A    between atoms: _163  and  _164
REMARK   69  A    between atoms: _167  and  _169
REMARK   70  A    between atoms: _169  and  _170
REMARK   71  A    between atoms: _169  and  _172
REMARK   72  A    between atoms: _172  and  _173
REMARK   73  A    between atoms: _173  and  _174
REMARK   74  A    between atoms: _174  and  _175
REMARK   75  A    between atoms: _184  and  _186
REMARK   76  A    between atoms: _186  and  _187
REMARK   77  A    between atoms: _186  and  _189
REMARK   78  A    between atoms: _189  and  _190
REMARK   79  A    between atoms: _195  and  _197
REMARK   80  A    between atoms: _197  and  _198
REMARK   81  A    between atoms: _197  and  _200
REMARK   82  A    between atoms: _200  and  _201
REMARK   83  A    between atoms: _206  and  _207
REMARK   84  A    between atoms: _209  and  _211
REMARK   85  A    between atoms: _211  and  _212
REMARK   86  A    between atoms: _211  and  _214
REMARK   87  A    between atoms: _214  and  _215
REMARK   88  A    between atoms: _215  and  _216
REMARK   89  A    between atoms: _219  and  _221
REMARK   90  A    between atoms: _221  and  _222
REMARK   91  A    between atoms: _221  and  _224
REMARK   92  A    between atoms: _224  and  _225
REMARK   93  A    between atoms: _228  and  _230
REMARK   94  A    between atoms: _230  and  _231
REMARK   95  A    between atoms: _230  and  _233
REMARK   96  A    between atoms: _233  and  _234
REMARK   97  A    between atoms: _236  and  _238
REMARK   98  A    between atoms: _238  and  _239
REMARK   99  A    between atoms: _238  and  _241
REMARK  100  A    between atoms: _241  and  _242
REMARK  101  A    between atoms: _244  and  _246
REMARK  102  A    between atoms: _246  and  _247
REMARK  103  A    between atoms: _250  and  _252
REMARK  104  A    between atoms: _252  and  _253
REMARK  105  A    between atoms: _252  and  _255
REMARK  106  A    between atoms: _255  and  _256
REMARK  107  A    between atoms: _259  and  _261
REMARK  108  A    between atoms: _261  and  _262
REMARK  109  A    between atoms: _261  and  _264
REMARK  110  A    between atoms: _264  and  _265
REMARK  111  A    between atoms: _270  and  _272
REMARK  112  A    between atoms: _272  and  _273
REMARK  113  A    between atoms: _272  and  _275
REMARK  114  A    between atoms: _278  and  _280
REMARK  115  A    between atoms: _280  and  _281
REMARK  116  A    between atoms: _283  and  _285
REMARK  117  A    between atoms: _285  and  _286
REMARK  118  A    between atoms: _285  and  _288
REMARK  119  A    between atoms: _288  and  _289
REMARK  120  A    between atoms: _299  and  _301
REMARK  121  A    between atoms: _301  and  _302
REMARK  122  A    between atoms: _304  and  _306
REMARK  123  A    between atoms: _306  and  _307
REMARK  124  A    between atoms: _306  and  _309
REMARK  125  A    between atoms: _309  and  _310
REMARK  126  A    between atoms: _310  and  _311
REMARK  127  A    between atoms: _311  and  _312
REMARK  128  A    between atoms: _312  and  _313
REMARK  129  A    between atoms: _317  and  _319
REMARK  130  A    between atoms: _319  and  _320
REMARK  131  A    between atoms: _319  and  _322
REMARK  132  A    between atoms: _322  and  _323
REMARK  133  A    between atoms: _333  and  _335
REMARK  134  A    between atoms: _335  and  _336
REMARK  135  A    between atoms: _335  and  _338
REMARK  136  A    between atoms: _338  and  _339
REMARK  137  A    between atoms: _342  and  _344
REMARK  138  A    between atoms: _344  and  _345
REMARK  139  A    between atoms: _344  and  _347
REMARK  140  A    between atoms: _347  and  _348
REMARK  141  A    between atoms: _353  and  _354
REMARK  142  A    between atoms: _356  and  _358
REMARK  143  A    between atoms: _358  and  _359
REMARK  144  A    between atoms: _358  and  _361
REMARK  145  A    between atoms: _361  and  _362
REMARK  146  A    between atoms: _362  and  _363
REMARK  147  A    between atoms: _366  and  _368
REMARK  148  A    between atoms: _368  and  _369
REMARK  149  A    between atoms: _368  and  _371
REMARK  150  A    between atoms: _371  and  _372
REMARK  151  A    between atoms: _375  and  _377
REMARK  152  A    between atoms: _377  and  _378
REMARK  153  A    between atoms: _377  and  _380
REMARK  154  A    between atoms: _380  and  _381
REMARK  155  A    between atoms: _386  and  _388
REMARK  156  A    between atoms: _388  and  _389
REMARK  157  A    between atoms: _388  and  _391
REMARK  158  A    between atoms: _391  and  _392
REMARK                            x       y       z     vdW  Elec       q    Type
REMARK                         _______ _______ _______ _____ _____    ______ ____
ROOT
ATOM      1  CB  PHE A   1      94.790   9.124  -0.106  0.00  0.00    +0.051 C 
ENDROOT
BRANCH   1   2
ATOM      2  CG  PHE A   1      96.257   9.293   0.267  0.00  0.00    -0.020 A 
ATOM      3  CD2 PHE A   1      97.035   8.196   0.619  0.00  0.00    -0.004 A 
ATOM      4  CE2 PHE A   1      98.358   8.359   1.030  0.00  0.00    -0.000 A 
ATOM      5  CZ  PHE A   1      98.902   9.635   1.092  0.00  0.00    -0.000 A 
ATOM      6  CE1 PHE A   1      98.129  10.725   0.775  0.00  0.00    -0.000 A 
ATOM      7  CD1 PHE A   1      96.804  10.552   0.369  0.00  0.00    -0.004 A 
ENDBRANCH   1   2
BRANCH   1   8
ATOM      8  CA  PHE A   1      94.552   8.278  -1.345  0.00  0.00    +0.137 C 
BRANCH   8   9
ATOM      9  N   PHE A   1      95.173   8.929  -2.518  0.00  0.00    -0.239 NA
ATOM     10  H   PHE A   1      95.539   9.897  -2.413  0.00  0.00    +0.142 HD
ENDBRANCH   8   9
BRANCH   8  11
ATOM     11  C   PHE A   1      93.048   8.046  -1.425  0.00  0.00    +0.224 C 
ATOM     12  O   PHE A   1      92.501   7.235  -0.672  0.00  0.00    -0.287 OA
ENDBRANCH   8  11
ENDBRANCH   1   8
TORSDOF 4
REMARK  Name = ../refined-set-2016/4cu7/4cu7_pocket.pdb
REMARK  158 active torsions:
REMARK  status: ('A' for Active; 'I' for Inactive)
REMARK    1  A    between atoms: _1  and  _3
REMARK    2  A    between atoms: _3  and  _4
REMARK    3  A    between atoms: _3  and  _6
REMARK    4  A    between atoms: _6  and  _7
REMARK    5  A    between atoms: _7  and  _8
REMARK    6  A    between atoms: _11  and  _13
REMARK    7  A    between atoms: _13  and  _14
REMARK    8  A    between atoms: _13  and  _16
REMARK    9  A    between atoms: _16  and  _17
REMARK   10  A    between atoms: _17  and  _18
REMARK   11  A    between atoms: _18  and  _19
REMARK   12  A    between atoms: _28  and  _30
REMARK   13  A    between atoms: _30  and  _31
REMARK   14  A    between atoms: _30  and  _33
REMARK   15  A    between atoms: _33  and  _34
REMARK   16  A    between atoms: _44  and  _46
REMARK   17  A    between atoms: _46  and  _47
REMARK   18  A    between atoms: _46  and  _49
REMARK   19  A    between atoms: _49  and  _50
REMARK   20  A    between atoms: _52  and  _54
REMARK   21  A    between atoms: _54  and  _55
REMARK   22  A    between atoms: _54  and  _57
REMARK   23  A    between atoms: _57  and  _58
REMARK   24  A    between atoms: _63  and  _65
REMARK   25  A    between atoms: _65  and  _66
REMARK   26  A    between atoms: _65  and  _68
REMARK   27  A    between atoms: _68  and  _69
REMARK   28  A    between atoms: _69  and  _70
REMARK   29  A    between atoms: _70  and  _71
REMARK   30  A    between atoms: _80  and  _82
REMARK   31  A    between atoms: _82  and  _83
REMARK   32  A    between atoms: _82  and  _85
REMARK   33  A    between atoms: _85  and  _86
REMARK   34  A    between atoms: _89  and  _91
REMARK   35  A    between atoms: _91  and  _92
REMARK   36  A    between atoms: _91  and  _94
REMARK   37  A    between atoms: _94  and  _95
REMARK   38  A    between atoms: _100  and  _102
REMARK   39  A    between atoms: _102  and  _103
REMARK   40  A    between atoms: _102  and  _105
REMARK   41  A    between atoms: _105  and  _106
REMARK   42  A    between atoms: _106  and  _107
REMARK   43  A    between atoms: _110  and  _112
REMARK   44  A    between atoms: _112  and  _113
REMARK   45  A    between atoms: _112  and  _115
REMARK   46  A    between atoms: _115  and  _116
REMARK   47  A    between atoms: _119  and  _121
REMARK   48  A    between atoms: _121  and  _122
REMARK   49  A    between atoms: _121  and  _124
REMARK   50  A    between atoms: _124  and  _125
REMARK   51  A    between atoms: _125  and  _126
REMARK   52  A    between atoms: _126  and  _127
REMARK   53  A    between atoms: _127  and  _128
REMARK   54  A    between atoms: _132  and  _134
REMARK   55  A    between atoms: _134  and  _135
REMARK   56  A    between atoms: _134  and  _137
REMARK   57  A    between atoms: _137  and  _138
REMARK   58  A    between atoms: _143  and  _145
REMARK   59  A    between atoms: _145  and  _146
REMARK   60  A    between atoms: _145  and  _148
REMARK   61  A    between atoms: _148  and  _149
REMARK   62  A    between atoms: _149  and  _150
REMARK   63  A    between atoms: _153  and  _155
REMARK   64  A    between atoms: _155  and  _156
REMARK   65  A    between atoms: _158  and  _160
REMARK   66  A    between atoms: _160  and  _161
REMARK   67  A    between atoms: _160  and  _163
REMARK   68  A    between atoms: _163  and  _164
REMARK   69  A    between atoms: _167  and  _169
REMARK   70  A    between atoms: _169  and  _170
REMARK   71  A    between atoms: _169  and  _172
REMARK   72  A    between atoms: _172  and  _173
REMARK   73  A    between atoms: _173  and  _174
REMARK   74  A    between atoms: _174  and  _175
REMARK   75  A    between atoms: _184  and  _186
REMARK   76  A    between atoms: _186  and  _187
REMARK   77  A    between atoms: _186  and  _189
REMARK   78  A    between atoms: _189  and  _190
REMARK   79  A    between atoms: _195  and  _197
REMARK   80  A    between atoms: _197  and  _198
REMARK   81  A    between atoms: _197  and  _200
REMARK   82  A    between atoms: _200  and  _201
REMARK   83  A    between atoms: _206  and  _207
REMARK   84  A    between atoms: _209  and  _211
REMARK   85  A    between atoms: _211  and  _212
REMARK   86  A    between atoms: _211  and  _214
REMARK   87  A    between atoms: _214  and  _215
REMARK   88  A    between atoms: _215  and  _216
REMARK   89  A    between atoms: _219  and  _221
REMARK   90  A    between atoms: _221  and  _222
REMARK   91  A    between atoms: _221  and  _224
REMARK   92  A    between atoms: _224  and  _225
REMARK   93  A    between atoms: _228  and  _230
REMARK   94  A    between atoms: _230  and  _231
REMARK   95  A    between atoms: _230  and  _233
REMARK   96  A    between atoms: _233  and  _234
REMARK   97  A    between atoms: _236  and  _238
REMARK   98  A    between atoms: _238  and  _239
REMARK   99  A    between atoms: _238  and  _241
REMARK  100  A    between atoms: _241  and  _242
REMARK  101  A    between atoms: _244  and  _246
REMARK  102  A    between atoms: _246  and  _247
REMARK  103  A    between atoms: _250  and  _252
REMARK  104  A    between atoms: _252  and  _253
REMARK  105  A    between atoms: _252  and  _255
REMARK  106  A    between atoms: _255  and  _256
REMARK  107  A    between atoms: _259  and  _261
REMARK  108  A    between atoms: _261  and  _262
REMARK  109  A    between atoms: _261  and  _264
REMARK  110  A    between atoms: _264  and  _265
REMARK  111  A    between atoms: _270  and  _272
REMARK  112  A    between atoms: _272  and  _273
REMARK  113  A    between atoms: _272  and  _275
REMARK  114  A    between atoms: _278  and  _280
REMARK  115  A    between atoms: _280  and  _281
REMARK  116  A    between atoms: _283  and  _285
REMARK  117  A    between atoms: _285  and  _286
REMARK  118  A    between atoms: _285  and  _288
REMARK  119  A    between atoms: _288  and  _289
REMARK  120  A    between atoms: _299  and  _301
REMARK  121  A    between atoms: _301  and  _302
REMARK  122  A    between atoms: _304  and  _306
REMARK  123  A    between atoms: _306  and  _307
REMARK  124  A    between atoms: _306  and  _309
REMARK  125  A    between atoms: _309  and  _310
REMARK  126  A    between atoms: _310  and  _311
REMARK  127  A    between atoms: _311  and  _312
REMARK  128  A    between atoms: _312  and  _313
REMARK  129  A    between atoms: _317  and  _319
REMARK  130  A    between atoms: _319  and  _320
REMARK  131  A    between atoms: _319  and  _322
REMARK  132  A    between atoms: _322  and  _323
REMARK  133  A    between atoms: _333  and  _335
REMARK  134  A    between atoms: _335  and  _336
REMARK  135  A    between atoms: _335  and  _338
REMARK  136  A    between atoms: _338  and  _339
REMARK  137  A    between atoms: _342  and  _344
REMARK  138  A    between atoms: _344  and  _345
REMARK  139  A    between atoms: _344  and  _347
REMARK  140  A    between atoms: _347  and  _348
REMARK  141  A    between atoms: _353  and  _354
REMARK  142  A    between atoms: _356  and  _358
REMARK  143  A    between atoms: _358  and  _359
REMARK  144  A    between atoms: _358  and  _361
REMARK  145  A    between atoms: _361  and  _362
REMARK  146  A    between atoms: _362  and  _363
REMARK  147  A    between atoms: _366  and  _368
REMARK  148  A    between atoms: _368  and  _369
REMARK  149  A    between atoms: _368  and  _371
REMARK  150  A    between atoms: _371  and  _372
REMARK  151  A    between atoms: _375  and  _377
REMARK  152  A    between atoms: _377  and  _378
REMARK  153  A    between atoms: _377  and  _380
REMARK  154  A    between atoms: _380  and  _381
REMARK  155  A    between atoms: _386  and  _388
REMARK  156  A    between atoms: _388  and  _389
REMARK  157  A    between atoms: _388  and  _391
REMARK  158  A    between atoms: _391  and  _392
REMARK                            x       y       z     vdW  Elec       q    Type
REMARK                         _______ _______ _______ _____ _____    ______ ____
ROOT
ATOM      1  O   HOH     1     101.864  16.940   2.911  0.00  0.00    +0.000 OA
ENDROOT
TORSDOF 0
REMARK  Name = ../refined-set-2016/4cu7/4cu7_pocket.pdb
REMARK  158 active torsions:
REMARK  status: ('A' for Active; 'I' for Inactive)
REMARK    1  A    between atoms: _1  and  _3
REMARK    2  A    between atoms: _3  and  _4
REMARK    3  A    between atoms: _3  and  _6
REMARK    4  A    between atoms: _6  and  _7
REMARK    5  A    between atoms: _7  and  _8
REMARK    6  A    between atoms: _11  and  _13
REMARK    7  A    between atoms: _13  and  _14
REMARK    8  A    between atoms: _13  and  _16
REMARK    9  A    between atoms: _16  and  _17
REMARK   10  A    between atoms: _17  and  _18
REMARK   11  A    between atoms: _18  and  _19
REMARK   12  A    between atoms: _28  and  _30
REMARK   13  A    between atoms: _30  and  _31
REMARK   14  A    between atoms: _30  and  _33
REMARK   15  A    between atoms: _33  and  _34
REMARK   16  A    between atoms: _44  and  _46
REMARK   17  A    between atoms: _46  and  _47
REMARK   18  A    between atoms: _46  and  _49
REMARK   19  A    between atoms: _49  and  _50
REMARK   20  A    between atoms: _52  and  _54
REMARK   21  A    between atoms: _54  and  _55
REMARK   22  A    between atoms: _54  and  _57
REMARK   23  A    between atoms: _57  and  _58
REMARK   24  A    between atoms: _63  and  _65
REMARK   25  A    between atoms: _65  and  _66
REMARK   26  A    between atoms: _65  and  _68
REMARK   27  A    between atoms: _68  and  _69
REMARK   28  A    between atoms: _69  and  _70
REMARK   29  A    between atoms: _70  and  _71
REMARK   30  A    between atoms: _80  and  _82
REMARK   31  A    between atoms: _82  and  _83
REMARK   32  A    between atoms: _82  and  _85
REMARK   33  A    between atoms: _85  and  _86
REMARK   34  A    between atoms: _89  and  _91
REMARK   35  A    between atoms: _91  and  _92
REMARK   36  A    between atoms: _91  and  _94
REMARK   37  A    between atoms: _94  and  _95
REMARK   38  A    between atoms: _100  and  _102
REMARK   39  A    between atoms: _102  and  _103
REMARK   40  A    between atoms: _102  and  _105
REMARK   41  A    between atoms: _105  and  _106
REMARK   42  A    between atoms: _106  and  _107
REMARK   43  A    between atoms: _110  and  _112
REMARK   44  A    between atoms: _112  and  _113
REMARK   45  A    between atoms: _112  and  _115
REMARK   46  A    between atoms: _115  and  _116
REMARK   47  A    between atoms: _119  and  _121
REMARK   48  A    between atoms: _121  and  _122
REMARK   49  A    between atoms: _121  and  _124
REMARK   50  A    between atoms: _124  and  _125
REMARK   51  A    between atoms: _125  and  _126
REMARK   52  A    between atoms: _126  and  _127
REMARK   53  A    between atoms: _127  and  _128
REMARK   54  A    between atoms: _132  and  _134
REMARK   55  A    between atoms: _134  and  _135
REMARK   56  A    between atoms: _134  and  _137
REMARK   57  A    between atoms: _137  and  _138
REMARK   58  A    between atoms: _143  and  _145
REMARK   59  A    between atoms: _145  and  _146
REMARK   60  A    between atoms: _145  and  _148
REMARK   61  A    between atoms: _148  and  _149
REMARK   62  A    between atoms: _149  and  _150
REMARK   63  A    between atoms: _153  and  _155
REMARK   64  A    between atoms: _155  and  _156
REMARK   65  A    between atoms: _158  and  _160
REMARK   66  A    between atoms: _160  and  _161
REMARK   67  A    between atoms: _160  and  _163
REMARK   68  A    between atoms: _163  and  _164
REMARK   69  A    between atoms: _167  and  _169
REMARK   70  A    between atoms: _169  and  _170
REMARK   71  A    between atoms: _169  and  _172
REMARK   72  A    between atoms: _172  and  _173
REMARK   73  A    between atoms: _173  and  _174
REMARK   74  A    between atoms: _174  and  _175
REMARK   75  A    between atoms: _184  and  _186
REMARK   76  A    between atoms: _186  and  _187
REMARK   77  A    between atoms: _186  and  _189
REMARK   78  A    between atoms: _189  and  _190
REMARK   79  A    between atoms: _195  and  _197
REMARK   80  A    between atoms: _197  and  _198
REMARK   81  A    between atoms: _197  and  _200
REMARK   82  A    between atoms: _200  and  _201
REMARK   83  A    between atoms: _206  and  _207
REMARK   84  A    between atoms: _209  and  _211
REMARK   85  A    between atoms: _211  and  _212
REMARK   86  A    between atoms: _211  and  _214
REMARK   87  A    between atoms: _214  and  _215
REMARK   88  A    between atoms: _215  and  _216
REMARK   89  A    between atoms: _219  and  _221
REMARK   90  A    between atoms: _221  and  _222
REMARK   91  A    between atoms: _221  and  _224
REMARK   92  A    between atoms: _224  and  _225
REMARK   93  A    between atoms: _228  and  _230
REMARK   94  A    between atoms: _230  and  _231
REMARK   95  A    between atoms: _230  and  _233
REMARK   96  A    between atoms: _233  and  _234
REMARK   97  A    between atoms: _236  and  _238
REMARK   98  A    between atoms: _238  and  _239
REMARK   99  A    between atoms: _238  and  _241
REMARK  100  A    between atoms: _241  and  _242
REMARK  101  A    between atoms: _244  and  _246
REMARK  102  A    between atoms: _246  and  _247
REMARK  103  A    between atoms: _250  and  _252
REMARK  104  A    between atoms: _252  and  _253
REMARK  105  A    between atoms: _252  and  _255
REMARK  106  A    between atoms: _255  and  _256
REMARK  107  A    between atoms: _259  and  _261
REMARK  108  A    between atoms: _261  and  _262
REMARK  109  A    between atoms: _261  and  _264
REMARK  110  A    between atoms: _264  and  _265
REMARK  111  A    between atoms: _270  and  _272
REMARK  112  A    between atoms: _272  and  _273
REMARK  113  A    between atoms: _272  and  _275
REMARK  114  A    between atoms: _278  and  _280
REMARK  115  A    between atoms: _280  and  _281
REMARK  116  A    between atoms: _283  and  _285
REMARK  117  A    between atoms: _285  and  _286
REMARK  118  A    between atoms: _285  and  _288
REMARK  119  A    between atoms: _288  and  _289
REMARK  120  A    between atoms: _299  and  _301
REMARK  121  A    between atoms: _301  and  _302
REMARK  122  A    between atoms: _304  and  _306
REMARK  123  A    between atoms: _306  and  _307
REMARK  124  A    between atoms: _306  and  _309
REMARK  125  A    between atoms: _309  and  _310
REMARK  126  A    between atoms: _310  and  _311
REMARK  127  A    between atoms: _311  and  _312
REMARK  128  A    between atoms: _312  and  _313
REMARK  129  A    between atoms: _317  and  _319
REMARK  130  A    between atoms: _319  and  _320
REMARK  131  A    between atoms: _319  and  _322
REMARK  132  A    between atoms: _322  and  _323
REMARK  133  A    between atoms: _333  and  _335
REMARK  134  A    between atoms: _335  and  _336
REMARK  135  A    between atoms: _335  and  _338
REMARK  136  A    between atoms: _338  and  _339
REMARK  137  A    between atoms: _342  and  _344
REMARK  138  A    between atoms: _344  and  _345
REMARK  139  A    between atoms: _344  and  _347
REMARK  140  A    between atoms: _347  and  _348
REMARK  141  A    between atoms: _353  and  _354
REMARK  142  A    between atoms: _356  and  _358
REMARK  143  A    between atoms: _358  and  _359
REMARK  144  A    between atoms: _358  and  _361
REMARK  145  A    between atoms: _361  and  _362
REMARK  146  A    between atoms: _362  and  _363
REMARK  147  A    between atoms: _366  and  _368
REMARK  148  A    between atoms: _368  and  _369
REMARK  149  A    between atoms: _368  and  _371
REMARK  150  A    between atoms: _371  and  _372
REMARK  151  A    between atoms: _375  and  _377
REMARK  152  A    between atoms: _377  and  _378
REMARK  153  A    between atoms: _377  and  _380
REMARK  154  A    between atoms: _380  and  _381
REMARK  155  A    between atoms: _386  and  _388
REMARK  156  A    between atoms: _388  and  _389
REMARK  157  A    between atoms: _388  and  _391
REMARK  158  A    between atoms: _391  and  _392
REMARK                            x       y       z     vdW  Elec       q    Type
REMARK                         _______ _______ _______ _____ _____    ______ ____
ROOT
ATOM      1  O   HOH     1     105.131  17.952   4.770  0.00  0.00    +0.000 OA
ENDROOT
TORSDOF 0
REMARK  Name = ../refined-set-2016/4cu7/4cu7_pocket.pdb
REMARK  158 active torsions:
REMARK  status: ('A' for Active; 'I' for Inactive)
REMARK    1  A    between atoms: _1  and  _3
REMARK    2  A    between atoms: _3  and  _4
REMARK    3  A    between atoms: _3  and  _6
REMARK    4  A    between atoms: _6  and  _7
REMARK    5  A    between atoms: _7  and  _8
REMARK    6  A    between atoms: _11  and  _13
REMARK    7  A    between atoms: _13  and  _14
REMARK    8  A    between atoms: _13  and  _16
REMARK    9  A    between atoms: _16  and  _17
REMARK   10  A    between atoms: _17  and  _18
REMARK   11  A    between atoms: _18  and  _19
REMARK   12  A    between atoms: _28  and  _30
REMARK   13  A    between atoms: _30  and  _31
REMARK   14  A    between atoms: _30  and  _33
REMARK   15  A    between atoms: _33  and  _34
REMARK   16  A    between atoms: _44  and  _46
REMARK   17  A    between atoms: _46  and  _47
REMARK   18  A    between atoms: _46  and  _49
REMARK   19  A    between atoms: _49  and  _50
REMARK   20  A    between atoms: _52  and  _54
REMARK   21  A    between atoms: _54  and  _55
REMARK   22  A    between atoms: _54  and  _57
REMARK   23  A    between atoms: _57  and  _58
REMARK   24  A    between atoms: _63  and  _65
REMARK   25  A    between atoms: _65  and  _66
REMARK   26  A    between atoms: _65  and  _68
REMARK   27  A    between atoms: _68  and  _69
REMARK   28  A    between atoms: _69  and  _70
REMARK   29  A    between atoms: _70  and  _71
REMARK   30  A    between atoms: _80  and  _82
REMARK   31  A    between atoms: _82  and  _83
REMARK   32  A    between atoms: _82  and  _85
REMARK   33  A    between atoms: _85  and  _86
REMARK   34  A    between atoms: _89  and  _91
REMARK   35  A    between atoms: _91  and  _92
REMARK   36  A    between atoms: _91  and  _94
REMARK   37  A    between atoms: _94  and  _95
REMARK   38  A    between atoms: _100  and  _102
REMARK   39  A    between atoms: _102  and  _103
REMARK   40  A    between atoms: _102  and  _105
REMARK   41  A    between atoms: _105  and  _106
REMARK   42  A    between atoms: _106  and  _107
REMARK   43  A    between atoms: _110  and  _112
REMARK   44  A    between atoms: _112  and  _113
REMARK   45  A    between atoms: _112  and  _115
REMARK   46  A    between atoms: _115  and  _116
REMARK   47  A    between atoms: _119  and  _121
REMARK   48  A    between atoms: _121  and  _122
REMARK   49  A    between atoms: _121  and  _124
REMARK   50  A    between atoms: _124  and  _125
REMARK   51  A    between atoms: _125  and  _126
REMARK   52  A    between atoms: _126  and  _127
REMARK   53  A    between atoms: _127  and  _128
REMARK   54  A    between atoms: _132  and  _134
REMARK   55  A    between atoms: _134  and  _135
REMARK   56  A    between atoms: _134  and  _137
REMARK   57  A    between atoms: _137  and  _138
REMARK   58  A    between atoms: _143  and  _145
REMARK   59  A    between atoms: _145  and  _146
REMARK   60  A    between atoms: _145  and  _148
REMARK   61  A    between atoms: _148  and  _149
REMARK   62  A    between atoms: _149  and  _150
REMARK   63  A    between atoms: _153  and  _155
REMARK   64  A    between atoms: _155  and  _156
REMARK   65  A    between atoms: _158  and  _160
REMARK   66  A    between atoms: _160  and  _161
REMARK   67  A    between atoms: _160  and  _163
REMARK   68  A    between atoms: _163  and  _164
REMARK   69  A    between atoms: _167  and  _169
REMARK   70  A    between atoms: _169  and  _170
REMARK   71  A    between atoms: _169  and  _172
REMARK   72  A    between atoms: _172  and  _173
REMARK   73  A    between atoms: _173  and  _174
REMARK   74  A    between atoms: _174  and  _175
REMARK   75  A    between atoms: _184  and  _186
REMARK   76  A    between atoms: _186  and  _187
REMARK   77  A    between atoms: _186  and  _189
REMARK   78  A    between atoms: _189  and  _190
REMARK   79  A    between atoms: _195  and  _197
REMARK   80  A    between atoms: _197  and  _198
REMARK   81  A    between atoms: _197  and  _200
REMARK   82  A    between atoms: _200  and  _201
REMARK   83  A    between atoms: _206  and  _207
REMARK   84  A    between atoms: _209  and  _211
REMARK   85  A    between atoms: _211  and  _212
REMARK   86  A    between atoms: _211  and  _214
REMARK   87  A    between atoms: _214  and  _215
REMARK   88  A    between atoms: _215  and  _216
REMARK   89  A    between atoms: _219  and  _221
REMARK   90  A    between atoms: _221  and  _222
REMARK   91  A    between atoms: _221  and  _224
REMARK   92  A    between atoms: _224  and  _225
REMARK   93  A    between atoms: _228  and  _230
REMARK   94  A    between atoms: _230  and  _231
REMARK   95  A    between atoms: _230  and  _233
REMARK   96  A    between atoms: _233  and  _234
REMARK   97  A    between atoms: _236  and  _238
REMARK   98  A    between atoms: _238  and  _239
REMARK   99  A    between atoms: _238  and  _241
REMARK  100  A    between atoms: _241  and  _242
REMARK  101  A    between atoms: _244  and  _246
REMARK  102  A    between atoms: _246  and  _247
REMARK  103  A    between atoms: _250  and  _252
REMARK  104  A    between atoms: _252  and  _253
REMARK  105  A    between atoms: _252  and  _255
REMARK  106  A    between atoms: _255  and  _256
REMARK  107  A    between atoms: _259  and  _261
REMARK  108  A    between atoms: _261  and  _262
REMARK  109  A    between atoms: _261  and  _264
REMARK  110  A    between atoms: _264  and  _265
REMARK  111  A    between atoms: _270  and  _272
REMARK  112  A    between atoms: _272  and  _273
REMARK  113  A    between atoms: _272  and  _275
REMARK  114  A    between atoms: _278  and  _280
REMARK  115  A    between atoms: _280  and  _281
REMARK  116  A    between atoms: _283  and  _285
REMARK  117  A    between atoms: _285  and  _286
REMARK  118  A    between atoms: _285  and  _288
REMARK  119  A    between atoms: _288  and  _289
REMARK  120  A    between atoms: _299  and  _301
REMARK  121  A    between atoms: _301  and  _302
REMARK  122  A    between atoms: _304  and  _306
REMARK  123  A    between atoms: _306  and  _307
REMARK  124  A    between atoms: _306  and  _309
REMARK  125  A    between atoms: _309  and  _310
REMARK  126  A    between atoms: _310  and  _311
REMARK  127  A    between atoms: _311  and  _312
REMARK  128  A    between atoms: _312  and  _313
REMARK  129  A    between atoms: _317  and  _319
REMARK  130  A    between atoms: _319  and  _320
REMARK  131  A    between atoms: _319  and  _322
REMARK  132  A    between atoms: _322  and  _323
REMARK  133  A    between atoms: _333  and  _335
REMARK  134  A    between atoms: _335  and  _336
REMARK  135  A    between atoms: _335  and  _338
REMARK  136  A    between atoms: _338  and  _339
REMARK  137  A    between atoms: _342  and  _344
REMARK  138  A    between atoms: _344  and  _345
REMARK  139  A    between atoms: _344  and  _347
REMARK  140  A    between atoms: _347  and  _348
REMARK  141  A    between atoms: _353  and  _354
REMARK  142  A    between atoms: _356  and  _358
REMARK  143  A    between atoms: _358  and  _359
REMARK  144  A    between atoms: _358  and  _361
REMARK  145  A    between atoms: _361  and  _362
REMARK  146  A    between atoms: _362  and  _363
REMARK  147  A    between atoms: _366  and  _368
REMARK  148  A    between atoms: _368  and  _369
REMARK  149  A    between atoms: _368  and  _371
REMARK  150  A    between atoms: _371  and  _372
REMARK  151  A    between atoms: _375  and  _377
REMARK  152  A    between atoms: _377  and  _378
REMARK  153  A    between atoms: _377  and  _380
REMARK  154  A    between atoms: _380  and  _381
REMARK  155  A    between atoms: _386  and  _388
REMARK  156  A    between atoms: _388  and  _389
REMARK  157  A    between atoms: _388  and  _391
REMARK  158  A    between atoms: _391  and  _392
REMARK                            x       y       z     vdW  Elec       q    Type
REMARK                         _______ _______ _______ _____ _____    ______ ____
ROOT
ATOM      1  O   HOH     1     102.885  15.274   9.069  0.00  0.00    +0.000 OA
ENDROOT
TORSDOF 0
REMARK  Name = ../refined-set-2016/4cu7/4cu7_pocket.pdb
REMARK  158 active torsions:
REMARK  status: ('A' for Active; 'I' for Inactive)
REMARK    1  A    between atoms: _1  and  _3
REMARK    2  A    between atoms: _3  and  _4
REMARK    3  A    between atoms: _3  and  _6
REMARK    4  A    between atoms: _6  and  _7
REMARK    5  A    between atoms: _7  and  _8
REMARK    6  A    between atoms: _11  and  _13
REMARK    7  A    between atoms: _13  and  _14
REMARK    8  A    between atoms: _13  and  _16
REMARK    9  A    between atoms: _16  and  _17
REMARK   10  A    between atoms: _17  and  _18
REMARK   11  A    between atoms: _18  and  _19
REMARK   12  A    between atoms: _28  and  _30
REMARK   13  A    between atoms: _30  and  _31
REMARK   14  A    between atoms: _30  and  _33
REMARK   15  A    between atoms: _33  and  _34
REMARK   16  A    between atoms: _44  and  _46
REMARK   17  A    between atoms: _46  and  _47
REMARK   18  A    between atoms: _46  and  _49
REMARK   19  A    between atoms: _49  and  _50
REMARK   20  A    between atoms: _52  and  _54
REMARK   21  A    between atoms: _54  and  _55
REMARK   22  A    between atoms: _54  and  _57
REMARK   23  A    between atoms: _57  and  _58
REMARK   24  A    between atoms: _63  and  _65
REMARK   25  A    between atoms: _65  and  _66
REMARK   26  A    between atoms: _65  and  _68
REMARK   27  A    between atoms: _68  and  _69
REMARK   28  A    between atoms: _69  and  _70
REMARK   29  A    between atoms: _70  and  _71
REMARK   30  A    between atoms: _80  and  _82
REMARK   31  A    between atoms: _82  and  _83
REMARK   32  A    between atoms: _82  and  _85
REMARK   33  A    between atoms: _85  and  _86
REMARK   34  A    between atoms: _89  and  _91
REMARK   35  A    between atoms: _91  and  _92
REMARK   36  A    between atoms: _91  and  _94
REMARK   37  A    between atoms: _94  and  _95
REMARK   38  A    between atoms: _100  and  _102
REMARK   39  A    between atoms: _102  and  _103
REMARK   40  A    between atoms: _102  and  _105
REMARK   41  A    between atoms: _105  and  _106
REMARK   42  A    between atoms: _106  and  _107
REMARK   43  A    between atoms: _110  and  _112
REMARK   44  A    between atoms: _112  and  _113
REMARK   45  A    between atoms: _112  and  _115
REMARK   46  A    between atoms: _115  and  _116
REMARK   47  A    between atoms: _119  and  _121
REMARK   48  A    between atoms: _121  and  _122
REMARK   49  A    between atoms: _121  and  _124
REMARK   50  A    between atoms: _124  and  _125
REMARK   51  A    between atoms: _125  and  _126
REMARK   52  A    between atoms: _126  and  _127
REMARK   53  A    between atoms: _127  and  _128
REMARK   54  A    between atoms: _132  and  _134
REMARK   55  A    between atoms: _134  and  _135
REMARK   56  A    between atoms: _134  and  _137
REMARK   57  A    between atoms: _137  and  _138
REMARK   58  A    between atoms: _143  and  _145
REMARK   59  A    between atoms: _145  and  _146
REMARK   60  A    between atoms: _145  and  _148
REMARK   61  A    between atoms: _148  and  _149
REMARK   62  A    between atoms: _149  and  _150
REMARK   63  A    between atoms: _153  and  _155
REMARK   64  A    between atoms: _155  and  _156
REMARK   65  A    between atoms: _158  and  _160
REMARK   66  A    between atoms: _160  and  _161
REMARK   67  A    between atoms: _160  and  _163
REMARK   68  A    between atoms: _163  and  _164
REMARK   69  A    between atoms: _167  and  _169
REMARK   70  A    between atoms: _169  and  _170
REMARK   71  A    between atoms: _169  and  _172
REMARK   72  A    between atoms: _172  and  _173
REMARK   73  A    between atoms: _173  and  _174
REMARK   74  A    between atoms: _174  and  _175
REMARK   75  A    between atoms: _184  and  _186
REMARK   76  A    between atoms: _186  and  _187
REMARK   77  A    between atoms: _186  and  _189
REMARK   78  A    between atoms: _189  and  _190
REMARK   79  A    between atoms: _195  and  _197
REMARK   80  A    between atoms: _197  and  _198
REMARK   81  A    between atoms: _197  and  _200
REMARK   82  A    between atoms: _200  and  _201
REMARK   83  A    between atoms: _206  and  _207
REMARK   84  A    between atoms: _209  and  _211
REMARK   85  A    between atoms: _211  and  _212
REMARK   86  A    between atoms: _211  and  _214
REMARK   87  A    between atoms: _214  and  _215
REMARK   88  A    between atoms: _215  and  _216
REMARK   89  A    between atoms: _219  and  _221
REMARK   90  A    between atoms: _221  and  _222
REMARK   91  A    between atoms: _221  and  _224
REMARK   92  A    between atoms: _224  and  _225
REMARK   93  A    between atoms: _228  and  _230
REMARK   94  A    between atoms: _230  and  _231
REMARK   95  A    between atoms: _230  and  _233
REMARK   96  A    between atoms: _233  and  _234
REMARK   97  A    between atoms: _236  and  _238
REMARK   98  A    between atoms: _238  and  _239
REMARK   99  A    between atoms: _238  and  _241
REMARK  100  A    between atoms: _241  and  _242
REMARK  101  A    between atoms: _244  and  _246
REMARK  102  A    between atoms: _246  and  _247
REMARK  103  A    between atoms: _250  and  _252
REMARK  104  A    between atoms: _252  and  _253
REMARK  105  A    between atoms: _252  and  _255
REMARK  106  A    between atoms: _255  and  _256
REMARK  107  A    between atoms: _259  and  _261
REMARK  108  A    between atoms: _261  and  _262
REMARK  109  A    between atoms: _261  and  _264
REMARK  110  A    between atoms: _264  and  _265
REMARK  111  A    between atoms: _270  and  _272
REMARK  112  A    between atoms: _272  and  _273
REMARK  113  A    between atoms: _272  and  _275
REMARK  114  A    between atoms: _278  and  _280
REMARK  115  A    between atoms: _280  and  _281
REMARK  116  A    between atoms: _283  and  _285
REMARK  117  A    between atoms: _285  and  _286
REMARK  118  A    between atoms: _285  and  _288
REMARK  119  A    between atoms: _288  and  _289
REMARK  120  A    between atoms: _299  and  _301
REMARK  121  A    between atoms: _301  and  _302
REMARK  122  A    between atoms: _304  and  _306
REMARK  123  A    between atoms: _306  and  _307
REMARK  124  A    between atoms: _306  and  _309
REMARK  125  A    between atoms: _309  and  _310
REMARK  126  A    between atoms: _310  and  _311
REMARK  127  A    between atoms: _311  and  _312
REMARK  128  A    between atoms: _312  and  _313
REMARK  129  A    between atoms: _317  and  _319
REMARK  130  A    between atoms: _319  and  _320
REMARK  131  A    between atoms: _319  and  _322
REMARK  132  A    between atoms: _322  and  _323
REMARK  133  A    between atoms: _333  and  _335
REMARK  134  A    between atoms: _335  and  _336
REMARK  135  A    between atoms: _335  and  _338
REMARK  136  A    between atoms: _338  and  _339
REMARK  137  A    between atoms: _342  and  _344
REMARK  138  A    between atoms: _344  and  _345
REMARK  139  A    between atoms: _344  and  _347
REMARK  140  A    between atoms: _347  and  _348
REMARK  141  A    between atoms: _353  and  _354
REMARK  142  A    between atoms: _356  and  _358
REMARK  143  A    between atoms: _358  and  _359
REMARK  144  A    between atoms: _358  and  _361
REMARK  145  A    between atoms: _361  and  _362
REMARK  146  A    between atoms: _362  and  _363
REMARK  147  A    between atoms: _366  and  _368
REMARK  148  A    between atoms: _368  and  _369
REMARK  149  A    between atoms: _368  and  _371
REMARK  150  A    between atoms: _371  and  _372
REMARK  151  A    between atoms: _375  and  _377
REMARK  152  A    between atoms: _377  and  _378
REMARK  153  A    between atoms: _377  and  _380
REMARK  154  A    between atoms: _380  and  _381
REMARK  155  A    between atoms: _386  and  _388
REMARK  156  A    between atoms: _388  and  _389
REMARK  157  A    between atoms: _388  and  _391
REMARK  158  A    between atoms: _391  and  _392
REMARK                            x       y       z     vdW  Elec       q    Type
REMARK                         _______ _______ _______ _____ _____    ______ ____
ROOT
ATOM      1  O   HOH     1      98.657  22.043   6.951  0.00  0.00    +0.000 OA
ENDROOT
TORSDOF 0
REMARK  Name = ../refined-set-2016/4cu7/4cu7_pocket.pdb
REMARK  158 active torsions:
REMARK  status: ('A' for Active; 'I' for Inactive)
REMARK    1  A    between atoms: _1  and  _3
REMARK    2  A    between atoms: _3  and  _4
REMARK    3  A    between atoms: _3  and  _6
REMARK    4  A    between atoms: _6  and  _7
REMARK    5  A    between atoms: _7  and  _8
REMARK    6  A    between atoms: _11  and  _13
REMARK    7  A    between atoms: _13  and  _14
REMARK    8  A    between atoms: _13  and  _16
REMARK    9  A    between atoms: _16  and  _17
REMARK   10  A    between atoms: _17  and  _18
REMARK   11  A    between atoms: _18  and  _19
REMARK   12  A    between atoms: _28  and  _30
REMARK   13  A    between atoms: _30  and  _31
REMARK   14  A    between atoms: _30  and  _33
REMARK   15  A    between atoms: _33  and  _34
REMARK   16  A    between atoms: _44  and  _46
REMARK   17  A    between atoms: _46  and  _47
REMARK   18  A    between atoms: _46  and  _49
REMARK   19  A    between atoms: _49  and  _50
REMARK   20  A    between atoms: _52  and  _54
REMARK   21  A    between atoms: _54  and  _55
REMARK   22  A    between atoms: _54  and  _57
REMARK   23  A    between atoms: _57  and  _58
REMARK   24  A    between atoms: _63  and  _65
REMARK   25  A    between atoms: _65  and  _66
REMARK   26  A    between atoms: _65  and  _68
REMARK   27  A    between atoms: _68  and  _69
REMARK   28  A    between atoms: _69  and  _70
REMARK   29  A    between atoms: _70  and  _71
REMARK   30  A    between atoms: _80  and  _82
REMARK   31  A    between atoms: _82  and  _83
REMARK   32  A    between atoms: _82  and  _85
REMARK   33  A    between atoms: _85  and  _86
REMARK   34  A    between atoms: _89  and  _91
REMARK   35  A    between atoms: _91  and  _92
REMARK   36  A    between atoms: _91  and  _94
REMARK   37  A    between atoms: _94  and  _95
REMARK   38  A    between atoms: _100  and  _102
REMARK   39  A    between atoms: _102  and  _103
REMARK   40  A    between atoms: _102  and  _105
REMARK   41  A    between atoms: _105  and  _106
REMARK   42  A    between atoms: _106  and  _107
REMARK   43  A    between atoms: _110  and  _112
REMARK   44  A    between atoms: _112  and  _113
REMARK   45  A    between atoms: _112  and  _115
REMARK   46  A    between atoms: _115  and  _116
REMARK   47  A    between atoms: _119  and  _121
REMARK   48  A    between atoms: _121  and  _122
REMARK   49  A    between atoms: _121  and  _124
REMARK   50  A    between atoms: _124  and  _125
REMARK   51  A    between atoms: _125  and  _126
REMARK   52  A    between atoms: _126  and  _127
REMARK   53  A    between atoms: _127  and  _128
REMARK   54  A    between atoms: _132  and  _134
REMARK   55  A    between atoms: _134  and  _135
REMARK   56  A    between atoms: _134  and  _137
REMARK   57  A    between atoms: _137  and  _138
REMARK   58  A    between atoms: _143  and  _145
REMARK   59  A    between atoms: _145  and  _146
REMARK   60  A    between atoms: _145  and  _148
REMARK   61  A    between atoms: _148  and  _149
REMARK   62  A    between atoms: _149  and  _150
REMARK   63  A    between atoms: _153  and  _155
REMARK   64  A    between atoms: _155  and  _156
REMARK   65  A    between atoms: _158  and  _160
REMARK   66  A    between atoms: _160  and  _161
REMARK   67  A    between atoms: _160  and  _163
REMARK   68  A    between atoms: _163  and  _164
REMARK   69  A    between atoms: _167  and  _169
REMARK   70  A    between atoms: _169  and  _170
REMARK   71  A    between atoms: _169  and  _172
REMARK   72  A    between atoms: _172  and  _173
REMARK   73  A    between atoms: _173  and  _174
REMARK   74  A    between atoms: _174  and  _175
REMARK   75  A    between atoms: _184  and  _186
REMARK   76  A    between atoms: _186  and  _187
REMARK   77  A    between atoms: _186  and  _189
REMARK   78  A    between atoms: _189  and  _190
REMARK   79  A    between atoms: _195  and  _197
REMARK   80  A    between atoms: _197  and  _198
REMARK   81  A    between atoms: _197  and  _200
REMARK   82  A    between atoms: _200  and  _201
REMARK   83  A    between atoms: _206  and  _207
REMARK   84  A    between atoms: _209  and  _211
REMARK   85  A    between atoms: _211  and  _212
REMARK   86  A    between atoms: _211  and  _214
REMARK   87  A    between atoms: _214  and  _215
REMARK   88  A    between atoms: _215  and  _216
REMARK   89  A    between atoms: _219  and  _221
REMARK   90  A    between atoms: _221  and  _222
REMARK   91  A    between atoms: _221  and  _224
REMARK   92  A    between atoms: _224  and  _225
REMARK   93  A    between atoms: _228  and  _230
REMARK   94  A    between atoms: _230  and  _231
REMARK   95  A    between atoms: _230  and  _233
REMARK   96  A    between atoms: _233  and  _234
REMARK   97  A    between atoms: _236  and  _238
REMARK   98  A    between atoms: _238  and  _239
REMARK   99  A    between atoms: _238  and  _241
REMARK  100  A    between atoms: _241  and  _242
REMARK  101  A    between atoms: _244  and  _246
REMARK  102  A    between atoms: _246  and  _247
REMARK  103  A    between atoms: _250  and  _252
REMARK  104  A    between atoms: _252  and  _253
REMARK  105  A    between atoms: _252  and  _255
REMARK  106  A    between atoms: _255  and  _256
REMARK  107  A    between atoms: _259  and  _261
REMARK  108  A    between atoms: _261  and  _262
REMARK  109  A    between atoms: _261  and  _264
REMARK  110  A    between atoms: _264  and  _265
REMARK  111  A    between atoms: _270  and  _272
REMARK  112  A    between atoms: _272  and  _273
REMARK  113  A    between atoms: _272  and  _275
REMARK  114  A    between atoms: _278  and  _280
REMARK  115  A    between atoms: _280  and  _281
REMARK  116  A    between atoms: _283  and  _285
REMARK  117  A    between atoms: _285  and  _286
REMARK  118  A    between atoms: _285  and  _288
REMARK  119  A    between atoms: _288  and  _289
REMARK  120  A    between atoms: _299  and  _301
REMARK  121  A    between atoms: _301  and  _302
REMARK  122  A    between atoms: _304  and  _306
REMARK  123  A    between atoms: _306  and  _307
REMARK  124  A    between atoms: _306  and  _309
REMARK  125  A    between atoms: _309  and  _310
REMARK  126  A    between atoms: _310  and  _311
REMARK  127  A    between atoms: _311  and  _312
REMARK  128  A    between atoms: _312  and  _313
REMARK  129  A    between atoms: _317  and  _319
REMARK  130  A    between atoms: _319  and  _320
REMARK  131  A    between atoms: _319  and  _322
REMARK  132  A    between atoms: _322  and  _323
REMARK  133  A    between atoms: _333  and  _335
REMARK  134  A    between atoms: _335  and  _336
REMARK  135  A    between atoms: _335  and  _338
REMARK  136  A    between atoms: _338  and  _339
REMARK  137  A    between atoms: _342  and  _344
REMARK  138  A    between atoms: _344  and  _345
REMARK  139  A    between atoms: _344  and  _347
REMARK  140  A    between atoms: _347  and  _348
REMARK  141  A    between atoms: _353  and  _354
REMARK  142  A    between atoms: _356  and  _358
REMARK  143  A    between atoms: _358  and  _359
REMARK  144  A    between atoms: _358  and  _361
REMARK  145  A    between atoms: _361  and  _362
REMARK  146  A    between atoms: _362  and  _363
REMARK  147  A    between atoms: _366  and  _368
REMARK  148  A    between atoms: _368  and  _369
REMARK  149  A    between atoms: _368  and  _371
REMARK  150  A    between atoms: _371  and  _372
REMARK  151  A    between atoms: _375  and  _377
REMARK  152  A    between atoms: _377  and  _378
REMARK  153  A    between atoms: _377  and  _380
REMARK  154  A    between atoms: _380  and  _381
REMARK  155  A    between atoms: _386  and  _388
REMARK  156  A    between atoms: _388  and  _389
REMARK  157  A    between atoms: _388  and  _391
REMARK  158  A    between atoms: _391  and  _392
REMARK                            x       y       z     vdW  Elec       q    Type
REMARK                         _______ _______ _______ _____ _____    ______ ____
ROOT
ATOM      1  O   HOH     1     102.403  15.714   5.270  0.00  0.00    +0.000 OA
ENDROOT
TORSDOF 0
REMARK  Name = ../refined-set-2016/4cu7/4cu7_pocket.pdb
REMARK  158 active torsions:
REMARK  status: ('A' for Active; 'I' for Inactive)
REMARK    1  A    between atoms: _1  and  _3
REMARK    2  A    between atoms: _3  and  _4
REMARK    3  A    between atoms: _3  and  _6
REMARK    4  A    between atoms: _6  and  _7
REMARK    5  A    between atoms: _7  and  _8
REMARK    6  A    between atoms: _11  and  _13
REMARK    7  A    between atoms: _13  and  _14
REMARK    8  A    between atoms: _13  and  _16
REMARK    9  A    between atoms: _16  and  _17
REMARK   10  A    between atoms: _17  and  _18
REMARK   11  A    between atoms: _18  and  _19
REMARK   12  A    between atoms: _28  and  _30
REMARK   13  A    between atoms: _30  and  _31
REMARK   14  A    between atoms: _30  and  _33
REMARK   15  A    between atoms: _33  and  _34
REMARK   16  A    between atoms: _44  and  _46
REMARK   17  A    between atoms: _46  and  _47
REMARK   18  A    between atoms: _46  and  _49
REMARK   19  A    between atoms: _49  and  _50
REMARK   20  A    between atoms: _52  and  _54
REMARK   21  A    between atoms: _54  and  _55
REMARK   22  A    between atoms: _54  and  _57
REMARK   23  A    between atoms: _57  and  _58
REMARK   24  A    between atoms: _63  and  _65
REMARK   25  A    between atoms: _65  and  _66
REMARK   26  A    between atoms: _65  and  _68
REMARK   27  A    between atoms: _68  and  _69
REMARK   28  A    between atoms: _69  and  _70
REMARK   29  A    between atoms: _70  and  _71
REMARK   30  A    between atoms: _80  and  _82
REMARK   31  A    between atoms: _82  and  _83
REMARK   32  A    between atoms: _82  and  _85
REMARK   33  A    between atoms: _85  and  _86
REMARK   34  A    between atoms: _89  and  _91
REMARK   35  A    between atoms: _91  and  _92
REMARK   36  A    between atoms: _91  and  _94
REMARK   37  A    between atoms: _94  and  _95
REMARK   38  A    between atoms: _100  and  _102
REMARK   39  A    between atoms: _102  and  _103
REMARK   40  A    between atoms: _102  and  _105
REMARK   41  A    between atoms: _105  and  _106
REMARK   42  A    between atoms: _106  and  _107
REMARK   43  A    between atoms: _110  and  _112
REMARK   44  A    between atoms: _112  and  _113
REMARK   45  A    between atoms: _112  and  _115
REMARK   46  A    between atoms: _115  and  _116
REMARK   47  A    between atoms: _119  and  _121
REMARK   48  A    between atoms: _121  and  _122
REMARK   49  A    between atoms: _121  and  _124
REMARK   50  A    between atoms: _124  and  _125
REMARK   51  A    between atoms: _125  and  _126
REMARK   52  A    between atoms: _126  and  _127
REMARK   53  A    between atoms: _127  and  _128
REMARK   54  A    between atoms: _132  and  _134
REMARK   55  A    between atoms: _134  and  _135
REMARK   56  A    between atoms: _134  and  _137
REMARK   57  A    between atoms: _137  and  _138
REMARK   58  A    between atoms: _143  and  _145
REMARK   59  A    between atoms: _145  and  _146
REMARK   60  A    between atoms: _145  and  _148
REMARK   61  A    between atoms: _148  and  _149
REMARK   62  A    between atoms: _149  and  _150
REMARK   63  A    between atoms: _153  and  _155
REMARK   64  A    between atoms: _155  and  _156
REMARK   65  A    between atoms: _158  and  _160
REMARK   66  A    between atoms: _160  and  _161
REMARK   67  A    between atoms: _160  and  _163
REMARK   68  A    between atoms: _163  and  _164
REMARK   69  A    between atoms: _167  and  _169
REMARK   70  A    between atoms: _169  and  _170
REMARK   71  A    between atoms: _169  and  _172
REMARK   72  A    between atoms: _172  and  _173
REMARK   73  A    between atoms: _173  and  _174
REMARK   74  A    between atoms: _174  and  _175
REMARK   75  A    between atoms: _184  and  _186
REMARK   76  A    between atoms: _186  and  _187
REMARK   77  A    between atoms: _186  and  _189
REMARK   78  A    between atoms: _189  and  _190
REMARK   79  A    between atoms: _195  and  _197
REMARK   80  A    between atoms: _197  and  _198
REMARK   81  A    between atoms: _197  and  _200
REMARK   82  A    between atoms: _200  and  _201
REMARK   83  A    between atoms: _206  and  _207
REMARK   84  A    between atoms: _209  and  _211
REMARK   85  A    between atoms: _211  and  _212
REMARK   86  A    between atoms: _211  and  _214
REMARK   87  A    between atoms: _214  and  _215
REMARK   88  A    between atoms: _215  and  _216
REMARK   89  A    between atoms: _219  and  _221
REMARK   90  A    between atoms: _221  and  _222
REMARK   91  A    between atoms: _221  and  _224
REMARK   92  A    between atoms: _224  and  _225
REMARK   93  A    between atoms: _228  and  _230
REMARK   94  A    between atoms: _230  and  _231
REMARK   95  A    between atoms: _230  and  _233
REMARK   96  A    between atoms: _233  and  _234
REMARK   97  A    between atoms: _236  and  _238
REMARK   98  A    between atoms: _238  and  _239
REMARK   99  A    between atoms: _238  and  _241
REMARK  100  A    between atoms: _241  and  _242
REMARK  101  A    between atoms: _244  and  _246
REMARK  102  A    between atoms: _246  and  _247
REMARK  103  A    between atoms: _250  and  _252
REMARK  104  A    between atoms: _252  and  _253
REMARK  105  A    between atoms: _252  and  _255
REMARK  106  A    between atoms: _255  and  _256
REMARK  107  A    between atoms: _259  and  _261
REMARK  108  A    between atoms: _261  and  _262
REMARK  109  A    between atoms: _261  and  _264
REMARK  110  A    between atoms: _264  and  _265
REMARK  111  A    between atoms: _270  and  _272
REMARK  112  A    between atoms: _272  and  _273
REMARK  113  A    between atoms: _272  and  _275
REMARK  114  A    between atoms: _278  and  _280
REMARK  115  A    between atoms: _280  and  _281
REMARK  116  A    between atoms: _283  and  _285
REMARK  117  A    between atoms: _285  and  _286
REMARK  118  A    between atoms: _285  and  _288
REMARK  119  A    between atoms: _288  and  _289
REMARK  120  A    between atoms: _299  and  _301
REMARK  121  A    between atoms: _301  and  _302
REMARK  122  A    between atoms: _304  and  _306
REMARK  123  A    between atoms: _306  and  _307
REMARK  124  A    between atoms: _306  and  _309
REMARK  125  A    between atoms: _309  and  _310
REMARK  126  A    between atoms: _310  and  _311
REMARK  127  A    between atoms: _311  and  _312
REMARK  128  A    between atoms: _312  and  _313
REMARK  129  A    between atoms: _317  and  _319
REMARK  130  A    between atoms: _319  and  _320
REMARK  131  A    between atoms: _319  and  _322
REMARK  132  A    between atoms: _322  and  _323
REMARK  133  A    between atoms: _333  and  _335
REMARK  134  A    between atoms: _335  and  _336
REMARK  135  A    between atoms: _335  and  _338
REMARK  136  A    between atoms: _338  and  _339
REMARK  137  A    between atoms: _342  and  _344
REMARK  138  A    between atoms: _344  and  _345
REMARK  139  A    between atoms: _344  and  _347
REMARK  140  A    between atoms: _347  and  _348
REMARK  141  A    between atoms: _353  and  _354
REMARK  142  A    between atoms: _356  and  _358
REMARK  143  A    between atoms: _358  and  _359
REMARK  144  A    between atoms: _358  and  _361
REMARK  145  A    between atoms: _361  and  _362
REMARK  146  A    between atoms: _362  and  _363
REMARK  147  A    between atoms: _366  and  _368
REMARK  148  A    between atoms: _368  and  _369
REMARK  149  A    between atoms: _368  and  _371
REMARK  150  A    between atoms: _371  and  _372
REMARK  151  A    between atoms: _375  and  _377
REMARK  152  A    between atoms: _377  and  _378
REMARK  153  A    between atoms: _377  and  _380
REMARK  154  A    between atoms: _380  and  _381
REMARK  155  A    between atoms: _386  and  _388
REMARK  156  A    between atoms: _388  and  _389
REMARK  157  A    between atoms: _388  and  _391
REMARK  158  A    between atoms: _391  and  _392
REMARK                            x       y       z     vdW  Elec       q    Type
REMARK                         _______ _______ _______ _____ _____    ______ ____
ROOT
ATOM      1  O   HOH     1     100.547  15.308  10.228  0.00  0.00    +0.000 OA
ENDROOT
TORSDOF 0
REMARK  Name = ../refined-set-2016/4cu7/4cu7_pocket.pdb
REMARK  158 active torsions:
REMARK  status: ('A' for Active; 'I' for Inactive)
REMARK    1  A    between atoms: _1  and  _3
REMARK    2  A    between atoms: _3  and  _4
REMARK    3  A    between atoms: _3  and  _6
REMARK    4  A    between atoms: _6  and  _7
REMARK    5  A    between atoms: _7  and  _8
REMARK    6  A    between atoms: _11  and  _13
REMARK    7  A    between atoms: _13  and  _14
REMARK    8  A    between atoms: _13  and  _16
REMARK    9  A    between atoms: _16  and  _17
REMARK   10  A    between atoms: _17  and  _18
REMARK   11  A    between atoms: _18  and  _19
REMARK   12  A    between atoms: _28  and  _30
REMARK   13  A    between atoms: _30  and  _31
REMARK   14  A    between atoms: _30  and  _33
REMARK   15  A    between atoms: _33  and  _34
REMARK   16  A    between atoms: _44  and  _46
REMARK   17  A    between atoms: _46  and  _47
REMARK   18  A    between atoms: _46  and  _49
REMARK   19  A    between atoms: _49  and  _50
REMARK   20  A    between atoms: _52  and  _54
REMARK   21  A    between atoms: _54  and  _55
REMARK   22  A    between atoms: _54  and  _57
REMARK   23  A    between atoms: _57  and  _58
REMARK   24  A    between atoms: _63  and  _65
REMARK   25  A    between atoms: _65  and  _66
REMARK   26  A    between atoms: _65  and  _68
REMARK   27  A    between atoms: _68  and  _69
REMARK   28  A    between atoms: _69  and  _70
REMARK   29  A    between atoms: _70  and  _71
REMARK   30  A    between atoms: _80  and  _82
REMARK   31  A    between atoms: _82  and  _83
REMARK   32  A    between atoms: _82  and  _85
REMARK   33  A    between atoms: _85  and  _86
REMARK   34  A    between atoms: _89  and  _91
REMARK   35  A    between atoms: _91  and  _92
REMARK   36  A    between atoms: _91  and  _94
REMARK   37  A    between atoms: _94  and  _95
REMARK   38  A    between atoms: _100  and  _102
REMARK   39  A    between atoms: _102  and  _103
REMARK   40  A    between atoms: _102  and  _105
REMARK   41  A    between atoms: _105  and  _106
REMARK   42  A    between atoms: _106  and  _107
REMARK   43  A    between atoms: _110  and  _112
REMARK   44  A    between atoms: _112  and  _113
REMARK   45  A    between atoms: _112  and  _115
REMARK   46  A    between atoms: _115  and  _116
REMARK   47  A    between atoms: _119  and  _121
REMARK   48  A    between atoms: _121  and  _122
REMARK   49  A    between atoms: _121  and  _124
REMARK   50  A    between atoms: _124  and  _125
REMARK   51  A    between atoms: _125  and  _126
REMARK   52  A    between atoms: _126  and  _127
REMARK   53  A    between atoms: _127  and  _128
REMARK   54  A    between atoms: _132  and  _134
REMARK   55  A    between atoms: _134  and  _135
REMARK   56  A    between atoms: _134  and  _137
REMARK   57  A    between atoms: _137  and  _138
REMARK   58  A    between atoms: _143  and  _145
REMARK   59  A    between atoms: _145  and  _146
REMARK   60  A    between atoms: _145  and  _148
REMARK   61  A    between atoms: _148  and  _149
REMARK   62  A    between atoms: _149  and  _150
REMARK   63  A    between atoms: _153  and  _155
REMARK   64  A    between atoms: _155  and  _156
REMARK   65  A    between atoms: _158  and  _160
REMARK   66  A    between atoms: _160  and  _161
REMARK   67  A    between atoms: _160  and  _163
REMARK   68  A    between atoms: _163  and  _164
REMARK   69  A    between atoms: _167  and  _169
REMARK   70  A    between atoms: _169  and  _170
REMARK   71  A    between atoms: _169  and  _172
REMARK   72  A    between atoms: _172  and  _173
REMARK   73  A    between atoms: _173  and  _174
REMARK   74  A    between atoms: _174  and  _175
REMARK   75  A    between atoms: _184  and  _186
REMARK   76  A    between atoms: _186  and  _187
REMARK   77  A    between atoms: _186  and  _189
REMARK   78  A    between atoms: _189  and  _190
REMARK   79  A    between atoms: _195  and  _197
REMARK   80  A    between atoms: _197  and  _198
REMARK   81  A    between atoms: _197  and  _200
REMARK   82  A    between atoms: _200  and  _201
REMARK   83  A    between atoms: _206  and  _207
REMARK   84  A    between atoms: _209  and  _211
REMARK   85  A    between atoms: _211  and  _212
REMARK   86  A    between atoms: _211  and  _214
REMARK   87  A    between atoms: _214  and  _215
REMARK   88  A    between atoms: _215  and  _216
REMARK   89  A    between atoms: _219  and  _221
REMARK   90  A    between atoms: _221  and  _222
REMARK   91  A    between atoms: _221  and  _224
REMARK   92  A    between atoms: _224  and  _225
REMARK   93  A    between atoms: _228  and  _230
REMARK   94  A    between atoms: _230  and  _231
REMARK   95  A    between atoms: _230  and  _233
REMARK   96  A    between atoms: _233  and  _234
REMARK   97  A    between atoms: _236  and  _238
REMARK   98  A    between atoms: _238  and  _239
REMARK   99  A    between atoms: _238  and  _241
REMARK  100  A    between atoms: _241  and  _242
REMARK  101  A    between atoms: _244  and  _246
REMARK  102  A    between atoms: _246  and  _247
REMARK  103  A    between atoms: _250  and  _252
REMARK  104  A    between atoms: _252  and  _253
REMARK  105  A    between atoms: _252  and  _255
REMARK  106  A    between atoms: _255  and  _256
REMARK  107  A    between atoms: _259  and  _261
REMARK  108  A    between atoms: _261  and  _262
REMARK  109  A    between atoms: _261  and  _264
REMARK  110  A    between atoms: _264  and  _265
REMARK  111  A    between atoms: _270  and  _272
REMARK  112  A    between atoms: _272  and  _273
REMARK  113  A    between atoms: _272  and  _275
REMARK  114  A    between atoms: _278  and  _280
REMARK  115  A    between atoms: _280  and  _281
REMARK  116  A    between atoms: _283  and  _285
REMARK  117  A    between atoms: _285  and  _286
REMARK  118  A    between atoms: _285  and  _288
REMARK  119  A    between atoms: _288  and  _289
REMARK  120  A    between atoms: _299  and  _301
REMARK  121  A    between atoms: _301  and  _302
REMARK  122  A    between atoms: _304  and  _306
REMARK  123  A    between atoms: _306  and  _307
REMARK  124  A    between atoms: _306  and  _309
REMARK  125  A    between atoms: _309  and  _310
REMARK  126  A    between atoms: _310  and  _311
REMARK  127  A    between atoms: _311  and  _312
REMARK  128  A    between atoms: _312  and  _313
REMARK  129  A    between atoms: _317  and  _319
REMARK  130  A    between atoms: _319  and  _320
REMARK  131  A    between atoms: _319  and  _322
REMARK  132  A    between atoms: _322  and  _323
REMARK  133  A    between atoms: _333  and  _335
REMARK  134  A    between atoms: _335  and  _336
REMARK  135  A    between atoms: _335  and  _338
REMARK  136  A    between atoms: _338  and  _339
REMARK  137  A    between atoms: _342  and  _344
REMARK  138  A    between atoms: _344  and  _345
REMARK  139  A    between atoms: _344  and  _347
REMARK  140  A    between atoms: _347  and  _348
REMARK  141  A    between atoms: _353  and  _354
REMARK  142  A    between atoms: _356  and  _358
REMARK  143  A    between atoms: _358  and  _359
REMARK  144  A    between atoms: _358  and  _361
REMARK  145  A    between atoms: _361  and  _362
REMARK  146  A    between atoms: _362  and  _363
REMARK  147  A    between atoms: _366  and  _368
REMARK  148  A    between atoms: _368  and  _369
REMARK  149  A    between atoms: _368  and  _371
REMARK  150  A    between atoms: _371  and  _372
REMARK  151  A    between atoms: _375  and  _377
REMARK  152  A    between atoms: _377  and  _378
REMARK  153  A    between atoms: _377  and  _380
REMARK  154  A    between atoms: _380  and  _381
REMARK  155  A    between atoms: _386  and  _388
REMARK  156  A    between atoms: _388  and  _389
REMARK  157  A    between atoms: _388  and  _391
REMARK  158  A    between atoms: _391  and  _392
REMARK                            x       y       z     vdW  Elec       q    Type
REMARK                         _______ _______ _______ _____ _____    ______ ____
ROOT
ATOM      1  O   HOH     1     106.339  10.466   1.861  0.00  0.00    +0.000 OA
ENDROOT
TORSDOF 0
REMARK  Name = ../refined-set-2016/4cu7/4cu7_pocket.pdb
REMARK  158 active torsions:
REMARK  status: ('A' for Active; 'I' for Inactive)
REMARK    1  A    between atoms: _1  and  _3
REMARK    2  A    between atoms: _3  and  _4
REMARK    3  A    between atoms: _3  and  _6
REMARK    4  A    between atoms: _6  and  _7
REMARK    5  A    between atoms: _7  and  _8
REMARK    6  A    between atoms: _11  and  _13
REMARK    7  A    between atoms: _13  and  _14
REMARK    8  A    between atoms: _13  and  _16
REMARK    9  A    between atoms: _16  and  _17
REMARK   10  A    between atoms: _17  and  _18
REMARK   11  A    between atoms: _18  and  _19
REMARK   12  A    between atoms: _28  and  _30
REMARK   13  A    between atoms: _30  and  _31
REMARK   14  A    between atoms: _30  and  _33
REMARK   15  A    between atoms: _33  and  _34
REMARK   16  A    between atoms: _44  and  _46
REMARK   17  A    between atoms: _46  and  _47
REMARK   18  A    between atoms: _46  and  _49
REMARK   19  A    between atoms: _49  and  _50
REMARK   20  A    between atoms: _52  and  _54
REMARK   21  A    between atoms: _54  and  _55
REMARK   22  A    between atoms: _54  and  _57
REMARK   23  A    between atoms: _57  and  _58
REMARK   24  A    between atoms: _63  and  _65
REMARK   25  A    between atoms: _65  and  _66
REMARK   26  A    between atoms: _65  and  _68
REMARK   27  A    between atoms: _68  and  _69
REMARK   28  A    between atoms: _69  and  _70
REMARK   29  A    between atoms: _70  and  _71
REMARK   30  A    between atoms: _80  and  _82
REMARK   31  A    between atoms: _82  and  _83
REMARK   32  A    between atoms: _82  and  _85
REMARK   33  A    between atoms: _85  and  _86
REMARK   34  A    between atoms: _89  and  _91
REMARK   35  A    between atoms: _91  and  _92
REMARK   36  A    between atoms: _91  and  _94
REMARK   37  A    between atoms: _94  and  _95
REMARK   38  A    between atoms: _100  and  _102
REMARK   39  A    between atoms: _102  and  _103
REMARK   40  A    between atoms: _102  and  _105
REMARK   41  A    between atoms: _105  and  _106
REMARK   42  A    between atoms: _106  and  _107
REMARK   43  A    between atoms: _110  and  _112
REMARK   44  A    between atoms: _112  and  _113
REMARK   45  A    between atoms: _112  and  _115
REMARK   46  A    between atoms: _115  and  _116
REMARK   47  A    between atoms: _119  and  _121
REMARK   48  A    between atoms: _121  and  _122
REMARK   49  A    between atoms: _121  and  _124
REMARK   50  A    between atoms: _124  and  _125
REMARK   51  A    between atoms: _125  and  _126
REMARK   52  A    between atoms: _126  and  _127
REMARK   53  A    between atoms: _127  and  _128
REMARK   54  A    between atoms: _132  and  _134
REMARK   55  A    between atoms: _134  and  _135
REMARK   56  A    between atoms: _134  and  _137
REMARK   57  A    between atoms: _137  and  _138
REMARK   58  A    between atoms: _143  and  _145
REMARK   59  A    between atoms: _145  and  _146
REMARK   60  A    between atoms: _145  and  _148
REMARK   61  A    between atoms: _148  and  _149
REMARK   62  A    between atoms: _149  and  _150
REMARK   63  A    between atoms: _153  and  _155
REMARK   64  A    between atoms: _155  and  _156
REMARK   65  A    between atoms: _158  and  _160
REMARK   66  A    between atoms: _160  and  _161
REMARK   67  A    between atoms: _160  and  _163
REMARK   68  A    between atoms: _163  and  _164
REMARK   69  A    between atoms: _167  and  _169
REMARK   70  A    between atoms: _169  and  _170
REMARK   71  A    between atoms: _169  and  _172
REMARK   72  A    between atoms: _172  and  _173
REMARK   73  A    between atoms: _173  and  _174
REMARK   74  A    between atoms: _174  and  _175
REMARK   75  A    between atoms: _184  and  _186
REMARK   76  A    between atoms: _186  and  _187
REMARK   77  A    between atoms: _186  and  _189
REMARK   78  A    between atoms: _189  and  _190
REMARK   79  A    between atoms: _195  and  _197
REMARK   80  A    between atoms: _197  and  _198
REMARK   81  A    between atoms: _197  and  _200
REMARK   82  A    between atoms: _200  and  _201
REMARK   83  A    between atoms: _206  and  _207
REMARK   84  A    between atoms: _209  and  _211
REMARK   85  A    between atoms: _211  and  _212
REMARK   86  A    between atoms: _211  and  _214
REMARK   87  A    between atoms: _214  and  _215
REMARK   88  A    between atoms: _215  and  _216
REMARK   89  A    between atoms: _219  and  _221
REMARK   90  A    between atoms: _221  and  _222
REMARK   91  A    between atoms: _221  and  _224
REMARK   92  A    between atoms: _224  and  _225
REMARK   93  A    between atoms: _228  and  _230
REMARK   94  A    between atoms: _230  and  _231
REMARK   95  A    between atoms: _230  and  _233
REMARK   96  A    between atoms: _233  and  _234
REMARK   97  A    between atoms: _236  and  _238
REMARK   98  A    between atoms: _238  and  _239
REMARK   99  A    between atoms: _238  and  _241
REMARK  100  A    between atoms: _241  and  _242
REMARK  101  A    between atoms: _244  and  _246
REMARK  102  A    between atoms: _246  and  _247
REMARK  103  A    between atoms: _250  and  _252
REMARK  104  A    between atoms: _252  and  _253
REMARK  105  A    between atoms: _252  and  _255
REMARK  106  A    between atoms: _255  and  _256
REMARK  107  A    between atoms: _259  and  _261
REMARK  108  A    between atoms: _261  and  _262
REMARK  109  A    between atoms: _261  and  _264
REMARK  110  A    between atoms: _264  and  _265
REMARK  111  A    between atoms: _270  and  _272
REMARK  112  A    between atoms: _272  and  _273
REMARK  113  A    between atoms: _272  and  _275
REMARK  114  A    between atoms: _278  and  _280
REMARK  115  A    between atoms: _280  and  _281
REMARK  116  A    between atoms: _283  and  _285
REMARK  117  A    between atoms: _285  and  _286
REMARK  118  A    between atoms: _285  and  _288
REMARK  119  A    between atoms: _288  and  _289
REMARK  120  A    between atoms: _299  and  _301
REMARK  121  A    between atoms: _301  and  _302
REMARK  122  A    between atoms: _304  and  _306
REMARK  123  A    between atoms: _306  and  _307
REMARK  124  A    between atoms: _306  and  _309
REMARK  125  A    between atoms: _309  and  _310
REMARK  126  A    between atoms: _310  and  _311
REMARK  127  A    between atoms: _311  and  _312
REMARK  128  A    between atoms: _312  and  _313
REMARK  129  A    between atoms: _317  and  _319
REMARK  130  A    between atoms: _319  and  _320
REMARK  131  A    between atoms: _319  and  _322
REMARK  132  A    between atoms: _322  and  _323
REMARK  133  A    between atoms: _333  and  _335
REMARK  134  A    between atoms: _335  and  _336
REMARK  135  A    between atoms: _335  and  _338
REMARK  136  A    between atoms: _338  and  _339
REMARK  137  A    between atoms: _342  and  _344
REMARK  138  A    between atoms: _344  and  _345
REMARK  139  A    between atoms: _344  and  _347
REMARK  140  A    between atoms: _347  and  _348
REMARK  141  A    between atoms: _353  and  _354
REMARK  142  A    between atoms: _356  and  _358
REMARK  143  A    between atoms: _358  and  _359
REMARK  144  A    between atoms: _358  and  _361
REMARK  145  A    between atoms: _361  and  _362
REMARK  146  A    between atoms: _362  and  _363
REMARK  147  A    between atoms: _366  and  _368
REMARK  148  A    between atoms: _368  and  _369
REMARK  149  A    between atoms: _368  and  _371
REMARK  150  A    between atoms: _371  and  _372
REMARK  151  A    between atoms: _375  and  _377
REMARK  152  A    between atoms: _377  and  _378
REMARK  153  A    between atoms: _377  and  _380
REMARK  154  A    between atoms: _380  and  _381
REMARK  155  A    between atoms: _386  and  _388
REMARK  156  A    between atoms: _388  and  _389
REMARK  157  A    between atoms: _388  and  _391
REMARK  158  A    between atoms: _391  and  _392
REMARK                            x       y       z     vdW  Elec       q    Type
REMARK                         _______ _______ _______ _____ _____    ______ ____
ROOT
ATOM      1  O   HOH     1     104.329  12.431   3.962  0.00  0.00    +0.000 OA
ENDROOT
TORSDOF 0
REMARK  Name = ../refined-set-2016/4cu7/4cu7_pocket.pdb
REMARK  158 active torsions:
REMARK  status: ('A' for Active; 'I' for Inactive)
REMARK    1  A    between atoms: _1  and  _3
REMARK    2  A    between atoms: _3  and  _4
REMARK    3  A    between atoms: _3  and  _6
REMARK    4  A    between atoms: _6  and  _7
REMARK    5  A    between atoms: _7  and  _8
REMARK    6  A    between atoms: _11  and  _13
REMARK    7  A    between atoms: _13  and  _14
REMARK    8  A    between atoms: _13  and  _16
REMARK    9  A    between atoms: _16  and  _17
REMARK   10  A    between atoms: _17  and  _18
REMARK   11  A    between atoms: _18  and  _19
REMARK   12  A    between atoms: _28  and  _30
REMARK   13  A    between atoms: _30  and  _31
REMARK   14  A    between atoms: _30  and  _33
REMARK   15  A    between atoms: _33  and  _34
REMARK   16  A    between atoms: _44  and  _46
REMARK   17  A    between atoms: _46  and  _47
REMARK   18  A    between atoms: _46  and  _49
REMARK   19  A    between atoms: _49  and  _50
REMARK   20  A    between atoms: _52  and  _54
REMARK   21  A    between atoms: _54  and  _55
REMARK   22  A    between atoms: _54  and  _57
REMARK   23  A    between atoms: _57  and  _58
REMARK   24  A    between atoms: _63  and  _65
REMARK   25  A    between atoms: _65  and  _66
REMARK   26  A    between atoms: _65  and  _68
REMARK   27  A    between atoms: _68  and  _69
REMARK   28  A    between atoms: _69  and  _70
REMARK   29  A    between atoms: _70  and  _71
REMARK   30  A    between atoms: _80  and  _82
REMARK   31  A    between atoms: _82  and  _83
REMARK   32  A    between atoms: _82  and  _85
REMARK   33  A    between atoms: _85  and  _86
REMARK   34  A    between atoms: _89  and  _91
REMARK   35  A    between atoms: _91  and  _92
REMARK   36  A    between atoms: _91  and  _94
REMARK   37  A    between atoms: _94  and  _95
REMARK   38  A    between atoms: _100  and  _102
REMARK   39  A    between atoms: _102  and  _103
REMARK   40  A    between atoms: _102  and  _105
REMARK   41  A    between atoms: _105  and  _106
REMARK   42  A    between atoms: _106  and  _107
REMARK   43  A    between atoms: _110  and  _112
REMARK   44  A    between atoms: _112  and  _113
REMARK   45  A    between atoms: _112  and  _115
REMARK   46  A    between atoms: _115  and  _116
REMARK   47  A    between atoms: _119  and  _121
REMARK   48  A    between atoms: _121  and  _122
REMARK   49  A    between atoms: _121  and  _124
REMARK   50  A    between atoms: _124  and  _125
REMARK   51  A    between atoms: _125  and  _126
REMARK   52  A    between atoms: _126  and  _127
REMARK   53  A    between atoms: _127  and  _128
REMARK   54  A    between atoms: _132  and  _134
REMARK   55  A    between atoms: _134  and  _135
REMARK   56  A    between atoms: _134  and  _137
REMARK   57  A    between atoms: _137  and  _138
REMARK   58  A    between atoms: _143  and  _145
REMARK   59  A    between atoms: _145  and  _146
REMARK   60  A    between atoms: _145  and  _148
REMARK   61  A    between atoms: _148  and  _149
REMARK   62  A    between atoms: _149  and  _150
REMARK   63  A    between atoms: _153  and  _155
REMARK   64  A    between atoms: _155  and  _156
REMARK   65  A    between atoms: _158  and  _160
REMARK   66  A    between atoms: _160  and  _161
REMARK   67  A    between atoms: _160  and  _163
REMARK   68  A    between atoms: _163  and  _164
REMARK   69  A    between atoms: _167  and  _169
REMARK   70  A    between atoms: _169  and  _170
REMARK   71  A    between atoms: _169  and  _172
REMARK   72  A    between atoms: _172  and  _173
REMARK   73  A    between atoms: _173  and  _174
REMARK   74  A    between atoms: _174  and  _175
REMARK   75  A    between atoms: _184  and  _186
REMARK   76  A    between atoms: _186  and  _187
REMARK   77  A    between atoms: _186  and  _189
REMARK   78  A    between atoms: _189  and  _190
REMARK   79  A    between atoms: _195  and  _197
REMARK   80  A    between atoms: _197  and  _198
REMARK   81  A    between atoms: _197  and  _200
REMARK   82  A    between atoms: _200  and  _201
REMARK   83  A    between atoms: _206  and  _207
REMARK   84  A    between atoms: _209  and  _211
REMARK   85  A    between atoms: _211  and  _212
REMARK   86  A    between atoms: _211  and  _214
REMARK   87  A    between atoms: _214  and  _215
REMARK   88  A    between atoms: _215  and  _216
REMARK   89  A    between atoms: _219  and  _221
REMARK   90  A    between atoms: _221  and  _222
REMARK   91  A    between atoms: _221  and  _224
REMARK   92  A    between atoms: _224  and  _225
REMARK   93  A    between atoms: _228  and  _230
REMARK   94  A    between atoms: _230  and  _231
REMARK   95  A    between atoms: _230  and  _233
REMARK   96  A    between atoms: _233  and  _234
REMARK   97  A    between atoms: _236  and  _238
REMARK   98  A    between atoms: _238  and  _239
REMARK   99  A    between atoms: _238  and  _241
REMARK  100  A    between atoms: _241  and  _242
REMARK  101  A    between atoms: _244  and  _246
REMARK  102  A    between atoms: _246  and  _247
REMARK  103  A    between atoms: _250  and  _252
REMARK  104  A    between atoms: _252  and  _253
REMARK  105  A    between atoms: _252  and  _255
REMARK  106  A    between atoms: _255  and  _256
REMARK  107  A    between atoms: _259  and  _261
REMARK  108  A    between atoms: _261  and  _262
REMARK  109  A    between atoms: _261  and  _264
REMARK  110  A    between atoms: _264  and  _265
REMARK  111  A    between atoms: _270  and  _272
REMARK  112  A    between atoms: _272  and  _273
REMARK  113  A    between atoms: _272  and  _275
REMARK  114  A    between atoms: _278  and  _280
REMARK  115  A    between atoms: _280  and  _281
REMARK  116  A    between atoms: _283  and  _285
REMARK  117  A    between atoms: _285  and  _286
REMARK  118  A    between atoms: _285  and  _288
REMARK  119  A    between atoms: _288  and  _289
REMARK  120  A    between atoms: _299  and  _301
REMARK  121  A    between atoms: _301  and  _302
REMARK  122  A    between atoms: _304  and  _306
REMARK  123  A    between atoms: _306  and  _307
REMARK  124  A    between atoms: _306  and  _309
REMARK  125  A    between atoms: _309  and  _310
REMARK  126  A    between atoms: _310  and  _311
REMARK  127  A    between atoms: _311  and  _312
REMARK  128  A    between atoms: _312  and  _313
REMARK  129  A    between atoms: _317  and  _319
REMARK  130  A    between atoms: _319  and  _320
REMARK  131  A    between atoms: _319  and  _322
REMARK  132  A    between atoms: _322  and  _323
REMARK  133  A    between atoms: _333  and  _335
REMARK  134  A    between atoms: _335  and  _336
REMARK  135  A    between atoms: _335  and  _338
REMARK  136  A    between atoms: _338  and  _339
REMARK  137  A    between atoms: _342  and  _344
REMARK  138  A    between atoms: _344  and  _345
REMARK  139  A    between atoms: _344  and  _347
REMARK  140  A    between atoms: _347  and  _348
REMARK  141  A    between atoms: _353  and  _354
REMARK  142  A    between atoms: _356  and  _358
REMARK  143  A    between atoms: _358  and  _359
REMARK  144  A    between atoms: _358  and  _361
REMARK  145  A    between atoms: _361  and  _362
REMARK  146  A    between atoms: _362  and  _363
REMARK  147  A    between atoms: _366  and  _368
REMARK  148  A    between atoms: _368  and  _369
REMARK  149  A    between atoms: _368  and  _371
REMARK  150  A    between atoms: _371  and  _372
REMARK  151  A    between atoms: _375  and  _377
REMARK  152  A    between atoms: _377  and  _378
REMARK  153  A    between atoms: _377  and  _380
REMARK  154  A    between atoms: _380  and  _381
REMARK  155  A    between atoms: _386  and  _388
REMARK  156  A    between atoms: _388  and  _389
REMARK  157  A    between atoms: _388  and  _391
REMARK  158  A    between atoms: _391  and  _392
REMARK                            x       y       z     vdW  Elec       q    Type
REMARK                         _______ _______ _______ _____ _____    ______ ____
ROOT
ATOM      1  O   HOH     1      96.735  16.074   4.403  0.00  0.00    +0.000 OA
ENDROOT
TORSDOF 0
REMARK  Name = ../refined-set-2016/4cu7/4cu7_pocket.pdb
REMARK  158 active torsions:
REMARK  status: ('A' for Active; 'I' for Inactive)
REMARK    1  A    between atoms: _1  and  _3
REMARK    2  A    between atoms: _3  and  _4
REMARK    3  A    between atoms: _3  and  _6
REMARK    4  A    between atoms: _6  and  _7
REMARK    5  A    between atoms: _7  and  _8
REMARK    6  A    between atoms: _11  and  _13
REMARK    7  A    between atoms: _13  and  _14
REMARK    8  A    between atoms: _13  and  _16
REMARK    9  A    between atoms: _16  and  _17
REMARK   10  A    between atoms: _17  and  _18
REMARK   11  A    between atoms: _18  and  _19
REMARK   12  A    between atoms: _28  and  _30
REMARK   13  A    between atoms: _30  and  _31
REMARK   14  A    between atoms: _30  and  _33
REMARK   15  A    between atoms: _33  and  _34
REMARK   16  A    between atoms: _44  and  _46
REMARK   17  A    between atoms: _46  and  _47
REMARK   18  A    between atoms: _46  and  _49
REMARK   19  A    between atoms: _49  and  _50
REMARK   20  A    between atoms: _52  and  _54
REMARK   21  A    between atoms: _54  and  _55
REMARK   22  A    between atoms: _54  and  _57
REMARK   23  A    between atoms: _57  and  _58
REMARK   24  A    between atoms: _63  and  _65
REMARK   25  A    between atoms: _65  and  _66
REMARK   26  A    between atoms: _65  and  _68
REMARK   27  A    between atoms: _68  and  _69
REMARK   28  A    between atoms: _69  and  _70
REMARK   29  A    between atoms: _70  and  _71
REMARK   30  A    between atoms: _80  and  _82
REMARK   31  A    between atoms: _82  and  _83
REMARK   32  A    between atoms: _82  and  _85
REMARK   33  A    between atoms: _85  and  _86
REMARK   34  A    between atoms: _89  and  _91
REMARK   35  A    between atoms: _91  and  _92
REMARK   36  A    between atoms: _91  and  _94
REMARK   37  A    between atoms: _94  and  _95
REMARK   38  A    between atoms: _100  and  _102
REMARK   39  A    between atoms: _102  and  _103
REMARK   40  A    between atoms: _102  and  _105
REMARK   41  A    between atoms: _105  and  _106
REMARK   42  A    between atoms: _106  and  _107
REMARK   43  A    between atoms: _110  and  _112
REMARK   44  A    between atoms: _112  and  _113
REMARK   45  A    between atoms: _112  and  _115
REMARK   46  A    between atoms: _115  and  _116
REMARK   47  A    between atoms: _119  and  _121
REMARK   48  A    between atoms: _121  and  _122
REMARK   49  A    between atoms: _121  and  _124
REMARK   50  A    between atoms: _124  and  _125
REMARK   51  A    between atoms: _125  and  _126
REMARK   52  A    between atoms: _126  and  _127
REMARK   53  A    between atoms: _127  and  _128
REMARK   54  A    between atoms: _132  and  _134
REMARK   55  A    between atoms: _134  and  _135
REMARK   56  A    between atoms: _134  and  _137
REMARK   57  A    between atoms: _137  and  _138
REMARK   58  A    between atoms: _143  and  _145
REMARK   59  A    between atoms: _145  and  _146
REMARK   60  A    between atoms: _145  and  _148
REMARK   61  A    between atoms: _148  and  _149
REMARK   62  A    between atoms: _149  and  _150
REMARK   63  A    between atoms: _153  and  _155
REMARK   64  A    between atoms: _155  and  _156
REMARK   65  A    between atoms: _158  and  _160
REMARK   66  A    between atoms: _160  and  _161
REMARK   67  A    between atoms: _160  and  _163
REMARK   68  A    between atoms: _163  and  _164
REMARK   69  A    between atoms: _167  and  _169
REMARK   70  A    between atoms: _169  and  _170
REMARK   71  A    between atoms: _169  and  _172
REMARK   72  A    between atoms: _172  and  _173
REMARK   73  A    between atoms: _173  and  _174
REMARK   74  A    between atoms: _174  and  _175
REMARK   75  A    between atoms: _184  and  _186
REMARK   76  A    between atoms: _186  and  _187
REMARK   77  A    between atoms: _186  and  _189
REMARK   78  A    between atoms: _189  and  _190
REMARK   79  A    between atoms: _195  and  _197
REMARK   80  A    between atoms: _197  and  _198
REMARK   81  A    between atoms: _197  and  _200
REMARK   82  A    between atoms: _200  and  _201
REMARK   83  A    between atoms: _206  and  _207
REMARK   84  A    between atoms: _209  and  _211
REMARK   85  A    between atoms: _211  and  _212
REMARK   86  A    between atoms: _211  and  _214
REMARK   87  A    between atoms: _214  and  _215
REMARK   88  A    between atoms: _215  and  _216
REMARK   89  A    between atoms: _219  and  _221
REMARK   90  A    between atoms: _221  and  _222
REMARK   91  A    between atoms: _221  and  _224
REMARK   92  A    between atoms: _224  and  _225
REMARK   93  A    between atoms: _228  and  _230
REMARK   94  A    between atoms: _230  and  _231
REMARK   95  A    between atoms: _230  and  _233
REMARK   96  A    between atoms: _233  and  _234
REMARK   97  A    between atoms: _236  and  _238
REMARK   98  A    between atoms: _238  and  _239
REMARK   99  A    between atoms: _238  and  _241
REMARK  100  A    between atoms: _241  and  _242
REMARK  101  A    between atoms: _244  and  _246
REMARK  102  A    between atoms: _246  and  _247
REMARK  103  A    between atoms: _250  and  _252
REMARK  104  A    between atoms: _252  and  _253
REMARK  105  A    between atoms: _252  and  _255
REMARK  106  A    between atoms: _255  and  _256
REMARK  107  A    between atoms: _259  and  _261
REMARK  108  A    between atoms: _261  and  _262
REMARK  109  A    between atoms: _261  and  _264
REMARK  110  A    between atoms: _264  and  _265
REMARK  111  A    between atoms: _270  and  _272
REMARK  112  A    between atoms: _272  and  _273
REMARK  113  A    between atoms: _272  and  _275
REMARK  114  A    between atoms: _278  and  _280
REMARK  115  A    between atoms: _280  and  _281
REMARK  116  A    between atoms: _283  and  _285
REMARK  117  A    between atoms: _285  and  _286
REMARK  118  A    between atoms: _285  and  _288
REMARK  119  A    between atoms: _288  and  _289
REMARK  120  A    between atoms: _299  and  _301
REMARK  121  A    between atoms: _301  and  _302
REMARK  122  A    between atoms: _304  and  _306
REMARK  123  A    between atoms: _306  and  _307
REMARK  124  A    between atoms: _306  and  _309
REMARK  125  A    between atoms: _309  and  _310
REMARK  126  A    between atoms: _310  and  _311
REMARK  127  A    between atoms: _311  and  _312
REMARK  128  A    between atoms: _312  and  _313
REMARK  129  A    between atoms: _317  and  _319
REMARK  130  A    between atoms: _319  and  _320
REMARK  131  A    between atoms: _319  and  _322
REMARK  132  A    between atoms: _322  and  _323
REMARK  133  A    between atoms: _333  and  _335
REMARK  134  A    between atoms: _335  and  _336
REMARK  135  A    between atoms: _335  and  _338
REMARK  136  A    between atoms: _338  and  _339
REMARK  137  A    between atoms: _342  and  _344
REMARK  138  A    between atoms: _344  and  _345
REMARK  139  A    between atoms: _344  and  _347
REMARK  140  A    between atoms: _347  and  _348
REMARK  141  A    between atoms: _353  and  _354
REMARK  142  A    between atoms: _356  and  _358
REMARK  143  A    between atoms: _358  and  _359
REMARK  144  A    between atoms: _358  and  _361
REMARK  145  A    between atoms: _361  and  _362
REMARK  146  A    between atoms: _362  and  _363
REMARK  147  A    between atoms: _366  and  _368
REMARK  148  A    between atoms: _368  and  _369
REMARK  149  A    between atoms: _368  and  _371
REMARK  150  A    between atoms: _371  and  _372
REMARK  151  A    between atoms: _375  and  _377
REMARK  152  A    between atoms: _377  and  _378
REMARK  153  A    between atoms: _377  and  _380
REMARK  154  A    between atoms: _380  and  _381
REMARK  155  A    between atoms: _386  and  _388
REMARK  156  A    between atoms: _388  and  _389
REMARK  157  A    between atoms: _388  and  _391
REMARK  158  A    between atoms: _391  and  _392
REMARK                            x       y       z     vdW  Elec       q    Type
REMARK                         _______ _______ _______ _____ _____    ______ ____
ROOT
ATOM      1  O   HOH     1     103.364  14.866  13.566  0.00  0.00    +0.000 OA
ENDROOT
TORSDOF 0
REMARK  Name = ../refined-set-2016/4cu7/4cu7_pocket.pdb
REMARK  158 active torsions:
REMARK  status: ('A' for Active; 'I' for Inactive)
REMARK    1  A    between atoms: _1  and  _3
REMARK    2  A    between atoms: _3  and  _4
REMARK    3  A    between atoms: _3  and  _6
REMARK    4  A    between atoms: _6  and  _7
REMARK    5  A    between atoms: _7  and  _8
REMARK    6  A    between atoms: _11  and  _13
REMARK    7  A    between atoms: _13  and  _14
REMARK    8  A    between atoms: _13  and  _16
REMARK    9  A    between atoms: _16  and  _17
REMARK   10  A    between atoms: _17  and  _18
REMARK   11  A    between atoms: _18  and  _19
REMARK   12  A    between atoms: _28  and  _30
REMARK   13  A    between atoms: _30  and  _31
REMARK   14  A    between atoms: _30  and  _33
REMARK   15  A    between atoms: _33  and  _34
REMARK   16  A    between atoms: _44  and  _46
REMARK   17  A    between atoms: _46  and  _47
REMARK   18  A    between atoms: _46  and  _49
REMARK   19  A    between atoms: _49  and  _50
REMARK   20  A    between atoms: _52  and  _54
REMARK   21  A    between atoms: _54  and  _55
REMARK   22  A    between atoms: _54  and  _57
REMARK   23  A    between atoms: _57  and  _58
REMARK   24  A    between atoms: _63  and  _65
REMARK   25  A    between atoms: _65  and  _66
REMARK   26  A    between atoms: _65  and  _68
REMARK   27  A    between atoms: _68  and  _69
REMARK   28  A    between atoms: _69  and  _70
REMARK   29  A    between atoms: _70  and  _71
REMARK   30  A    between atoms: _80  and  _82
REMARK   31  A    between atoms: _82  and  _83
REMARK   32  A    between atoms: _82  and  _85
REMARK   33  A    between atoms: _85  and  _86
REMARK   34  A    between atoms: _89  and  _91
REMARK   35  A    between atoms: _91  and  _92
REMARK   36  A    between atoms: _91  and  _94
REMARK   37  A    between atoms: _94  and  _95
REMARK   38  A    between atoms: _100  and  _102
REMARK   39  A    between atoms: _102  and  _103
REMARK   40  A    between atoms: _102  and  _105
REMARK   41  A    between atoms: _105  and  _106
REMARK   42  A    between atoms: _106  and  _107
REMARK   43  A    between atoms: _110  and  _112
REMARK   44  A    between atoms: _112  and  _113
REMARK   45  A    between atoms: _112  and  _115
REMARK   46  A    between atoms: _115  and  _116
REMARK   47  A    between atoms: _119  and  _121
REMARK   48  A    between atoms: _121  and  _122
REMARK   49  A    between atoms: _121  and  _124
REMARK   50  A    between atoms: _124  and  _125
REMARK   51  A    between atoms: _125  and  _126
REMARK   52  A    between atoms: _126  and  _127
REMARK   53  A    between atoms: _127  and  _128
REMARK   54  A    between atoms: _132  and  _134
REMARK   55  A    between atoms: _134  and  _135
REMARK   56  A    between atoms: _134  and  _137
REMARK   57  A    between atoms: _137  and  _138
REMARK   58  A    between atoms: _143  and  _145
REMARK   59  A    between atoms: _145  and  _146
REMARK   60  A    between atoms: _145  and  _148
REMARK   61  A    between atoms: _148  and  _149
REMARK   62  A    between atoms: _149  and  _150
REMARK   63  A    between atoms: _153  and  _155
REMARK   64  A    between atoms: _155  and  _156
REMARK   65  A    between atoms: _158  and  _160
REMARK   66  A    between atoms: _160  and  _161
REMARK   67  A    between atoms: _160  and  _163
REMARK   68  A    between atoms: _163  and  _164
REMARK   69  A    between atoms: _167  and  _169
REMARK   70  A    between atoms: _169  and  _170
REMARK   71  A    between atoms: _169  and  _172
REMARK   72  A    between atoms: _172  and  _173
REMARK   73  A    between atoms: _173  and  _174
REMARK   74  A    between atoms: _174  and  _175
REMARK   75  A    between atoms: _184  and  _186
REMARK   76  A    between atoms: _186  and  _187
REMARK   77  A    between atoms: _186  and  _189
REMARK   78  A    between atoms: _189  and  _190
REMARK   79  A    between atoms: _195  and  _197
REMARK   80  A    between atoms: _197  and  _198
REMARK   81  A    between atoms: _197  and  _200
REMARK   82  A    between atoms: _200  and  _201
REMARK   83  A    between atoms: _206  and  _207
REMARK   84  A    between atoms: _209  and  _211
REMARK   85  A    between atoms: _211  and  _212
REMARK   86  A    between atoms: _211  and  _214
REMARK   87  A    between atoms: _214  and  _215
REMARK   88  A    between atoms: _215  and  _216
REMARK   89  A    between atoms: _219  and  _221
REMARK   90  A    between atoms: _221  and  _222
REMARK   91  A    between atoms: _221  and  _224
REMARK   92  A    between atoms: _224  and  _225
REMARK   93  A    between atoms: _228  and  _230
REMARK   94  A    between atoms: _230  and  _231
REMARK   95  A    between atoms: _230  and  _233
REMARK   96  A    between atoms: _233  and  _234
REMARK   97  A    between atoms: _236  and  _238
REMARK   98  A    between atoms: _238  and  _239
REMARK   99  A    between atoms: _238  and  _241
REMARK  100  A    between atoms: _241  and  _242
REMARK  101  A    between atoms: _244  and  _246
REMARK  102  A    between atoms: _246  and  _247
REMARK  103  A    between atoms: _250  and  _252
REMARK  104  A    between atoms: _252  and  _253
REMARK  105  A    between atoms: _252  and  _255
REMARK  106  A    between atoms: _255  and  _256
REMARK  107  A    between atoms: _259  and  _261
REMARK  108  A    between atoms: _261  and  _262
REMARK  109  A    between atoms: _261  and  _264
REMARK  110  A    between atoms: _264  and  _265
REMARK  111  A    between atoms: _270  and  _272
REMARK  112  A    between atoms: _272  and  _273
REMARK  113  A    between atoms: _272  and  _275
REMARK  114  A    between atoms: _278  and  _280
REMARK  115  A    between atoms: _280  and  _281
REMARK  116  A    between atoms: _283  and  _285
REMARK  117  A    between atoms: _285  and  _286
REMARK  118  A    between atoms: _285  and  _288
REMARK  119  A    between atoms: _288  and  _289
REMARK  120  A    between atoms: _299  and  _301
REMARK  121  A    between atoms: _301  and  _302
REMARK  122  A    between atoms: _304  and  _306
REMARK  123  A    between atoms: _306  and  _307
REMARK  124  A    between atoms: _306  and  _309
REMARK  125  A    between atoms: _309  and  _310
REMARK  126  A    between atoms: _310  and  _311
REMARK  127  A    between atoms: _311  and  _312
REMARK  128  A    between atoms: _312  and  _313
REMARK  129  A    between atoms: _317  and  _319
REMARK  130  A    between atoms: _319  and  _320
REMARK  131  A    between atoms: _319  and  _322
REMARK  132  A    between atoms: _322  and  _323
REMARK  133  A    between atoms: _333  and  _335
REMARK  134  A    between atoms: _335  and  _336
REMARK  135  A    between atoms: _335  and  _338
REMARK  136  A    between atoms: _338  and  _339
REMARK  137  A    between atoms: _342  and  _344
REMARK  138  A    between atoms: _344  and  _345
REMARK  139  A    between atoms: _344  and  _347
REMARK  140  A    between atoms: _347  and  _348
REMARK  141  A    between atoms: _353  and  _354
REMARK  142  A    between atoms: _356  and  _358
REMARK  143  A    between atoms: _358  and  _359
REMARK  144  A    between atoms: _358  and  _361
REMARK  145  A    between atoms: _361  and  _362
REMARK  146  A    between atoms: _362  and  _363
REMARK  147  A    between atoms: _366  and  _368
REMARK  148  A    between atoms: _368  and  _369
REMARK  149  A    between atoms: _368  and  _371
REMARK  150  A    between atoms: _371  and  _372
REMARK  151  A    between atoms: _375  and  _377
REMARK  152  A    between atoms: _377  and  _378
REMARK  153  A    between atoms: _377  and  _380
REMARK  154  A    between atoms: _380  and  _381
REMARK  155  A    between atoms: _386  and  _388
REMARK  156  A    between atoms: _388  and  _389
REMARK  157  A    between atoms: _388  and  _391
REMARK  158  A    between atoms: _391  and  _392
REMARK                            x       y       z     vdW  Elec       q    Type
REMARK                         _______ _______ _______ _____ _____    ______ ____
ROOT
ATOM      1  O   HOH     1     101.941  12.045   8.866  0.00  0.00    +0.000 OA
ENDROOT
TORSDOF 0
REMARK  Name = ../refined-set-2016/4cu7/4cu7_pocket.pdb
REMARK  158 active torsions:
REMARK  status: ('A' for Active; 'I' for Inactive)
REMARK    1  A    between atoms: _1  and  _3
REMARK    2  A    between atoms: _3  and  _4
REMARK    3  A    between atoms: _3  and  _6
REMARK    4  A    between atoms: _6  and  _7
REMARK    5  A    between atoms: _7  and  _8
REMARK    6  A    between atoms: _11  and  _13
REMARK    7  A    between atoms: _13  and  _14
REMARK    8  A    between atoms: _13  and  _16
REMARK    9  A    between atoms: _16  and  _17
REMARK   10  A    between atoms: _17  and  _18
REMARK   11  A    between atoms: _18  and  _19
REMARK   12  A    between atoms: _28  and  _30
REMARK   13  A    between atoms: _30  and  _31
REMARK   14  A    between atoms: _30  and  _33
REMARK   15  A    between atoms: _33  and  _34
REMARK   16  A    between atoms: _44  and  _46
REMARK   17  A    between atoms: _46  and  _47
REMARK   18  A    between atoms: _46  and  _49
REMARK   19  A    between atoms: _49  and  _50
REMARK   20  A    between atoms: _52  and  _54
REMARK   21  A    between atoms: _54  and  _55
REMARK   22  A    between atoms: _54  and  _57
REMARK   23  A    between atoms: _57  and  _58
REMARK   24  A    between atoms: _63  and  _65
REMARK   25  A    between atoms: _65  and  _66
REMARK   26  A    between atoms: _65  and  _68
REMARK   27  A    between atoms: _68  and  _69
REMARK   28  A    between atoms: _69  and  _70
REMARK   29  A    between atoms: _70  and  _71
REMARK   30  A    between atoms: _80  and  _82
REMARK   31  A    between atoms: _82  and  _83
REMARK   32  A    between atoms: _82  and  _85
REMARK   33  A    between atoms: _85  and  _86
REMARK   34  A    between atoms: _89  and  _91
REMARK   35  A    between atoms: _91  and  _92
REMARK   36  A    between atoms: _91  and  _94
REMARK   37  A    between atoms: _94  and  _95
REMARK   38  A    between atoms: _100  and  _102
REMARK   39  A    between atoms: _102  and  _103
REMARK   40  A    between atoms: _102  and  _105
REMARK   41  A    between atoms: _105  and  _106
REMARK   42  A    between atoms: _106  and  _107
REMARK   43  A    between atoms: _110  and  _112
REMARK   44  A    between atoms: _112  and  _113
REMARK   45  A    between atoms: _112  and  _115
REMARK   46  A    between atoms: _115  and  _116
REMARK   47  A    between atoms: _119  and  _121
REMARK   48  A    between atoms: _121  and  _122
REMARK   49  A    between atoms: _121  and  _124
REMARK   50  A    between atoms: _124  and  _125
REMARK   51  A    between atoms: _125  and  _126
REMARK   52  A    between atoms: _126  and  _127
REMARK   53  A    between atoms: _127  and  _128
REMARK   54  A    between atoms: _132  and  _134
REMARK   55  A    between atoms: _134  and  _135
REMARK   56  A    between atoms: _134  and  _137
REMARK   57  A    between atoms: _137  and  _138
REMARK   58  A    between atoms: _143  and  _145
REMARK   59  A    between atoms: _145  and  _146
REMARK   60  A    between atoms: _145  and  _148
REMARK   61  A    between atoms: _148  and  _149
REMARK   62  A    between atoms: _149  and  _150
REMARK   63  A    between atoms: _153  and  _155
REMARK   64  A    between atoms: _155  and  _156
REMARK   65  A    between atoms: _158  and  _160
REMARK   66  A    between atoms: _160  and  _161
REMARK   67  A    between atoms: _160  and  _163
REMARK   68  A    between atoms: _163  and  _164
REMARK   69  A    between atoms: _167  and  _169
REMARK   70  A    between atoms: _169  and  _170
REMARK   71  A    between atoms: _169  and  _172
REMARK   72  A    between atoms: _172  and  _173
REMARK   73  A    between atoms: _173  and  _174
REMARK   74  A    between atoms: _174  and  _175
REMARK   75  A    between atoms: _184  and  _186
REMARK   76  A    between atoms: _186  and  _187
REMARK   77  A    between atoms: _186  and  _189
REMARK   78  A    between atoms: _189  and  _190
REMARK   79  A    between atoms: _195  and  _197
REMARK   80  A    between atoms: _197  and  _198
REMARK   81  A    between atoms: _197  and  _200
REMARK   82  A    between atoms: _200  and  _201
REMARK   83  A    between atoms: _206  and  _207
REMARK   84  A    between atoms: _209  and  _211
REMARK   85  A    between atoms: _211  and  _212
REMARK   86  A    between atoms: _211  and  _214
REMARK   87  A    between atoms: _214  and  _215
REMARK   88  A    between atoms: _215  and  _216
REMARK   89  A    between atoms: _219  and  _221
REMARK   90  A    between atoms: _221  and  _222
REMARK   91  A    between atoms: _221  and  _224
REMARK   92  A    between atoms: _224  and  _225
REMARK   93  A    between atoms: _228  and  _230
REMARK   94  A    between atoms: _230  and  _231
REMARK   95  A    between atoms: _230  and  _233
REMARK   96  A    between atoms: _233  and  _234
REMARK   97  A    between atoms: _236  and  _238
REMARK   98  A    between atoms: _238  and  _239
REMARK   99  A    between atoms: _238  and  _241
REMARK  100  A    between atoms: _241  and  _242
REMARK  101  A    between atoms: _244  and  _246
REMARK  102  A    between atoms: _246  and  _247
REMARK  103  A    between atoms: _250  and  _252
REMARK  104  A    between atoms: _252  and  _253
REMARK  105  A    between atoms: _252  and  _255
REMARK  106  A    between atoms: _255  and  _256
REMARK  107  A    between atoms: _259  and  _261
REMARK  108  A    between atoms: _261  and  _262
REMARK  109  A    between atoms: _261  and  _264
REMARK  110  A    between atoms: _264  and  _265
REMARK  111  A    between atoms: _270  and  _272
REMARK  112  A    between atoms: _272  and  _273
REMARK  113  A    between atoms: _272  and  _275
REMARK  114  A    between atoms: _278  and  _280
REMARK  115  A    between atoms: _280  and  _281
REMARK  116  A    between atoms: _283  and  _285
REMARK  117  A    between atoms: _285  and  _286
REMARK  118  A    between atoms: _285  and  _288
REMARK  119  A    between atoms: _288  and  _289
REMARK  120  A    between atoms: _299  and  _301
REMARK  121  A    between atoms: _301  and  _302
REMARK  122  A    between atoms: _304  and  _306
REMARK  123  A    between atoms: _306  and  _307
REMARK  124  A    between atoms: _306  and  _309
REMARK  125  A    between atoms: _309  and  _310
REMARK  126  A    between atoms: _310  and  _311
REMARK  127  A    between atoms: _311  and  _312
REMARK  128  A    between atoms: _312  and  _313
REMARK  129  A    between atoms: _317  and  _319
REMARK  130  A    between atoms: _319  and  _320
REMARK  131  A    between atoms: _319  and  _322
REMARK  132  A    between atoms: _322  and  _323
REMARK  133  A    between atoms: _333  and  _335
REMARK  134  A    between atoms: _335  and  _336
REMARK  135  A    between atoms: _335  and  _338
REMARK  136  A    between atoms: _338  and  _339
REMARK  137  A    between atoms: _342  and  _344
REMARK  138  A    between atoms: _344  and  _345
REMARK  139  A    between atoms: _344  and  _347
REMARK  140  A    between atoms: _347  and  _348
REMARK  141  A    between atoms: _353  and  _354
REMARK  142  A    between atoms: _356  and  _358
REMARK  143  A    between atoms: _358  and  _359
REMARK  144  A    between atoms: _358  and  _361
REMARK  145  A    between atoms: _361  and  _362
REMARK  146  A    between atoms: _362  and  _363
REMARK  147  A    between atoms: _366  and  _368
REMARK  148  A    between atoms: _368  and  _369
REMARK  149  A    between atoms: _368  and  _371
REMARK  150  A    between atoms: _371  and  _372
REMARK  151  A    between atoms: _375  and  _377
REMARK  152  A    between atoms: _377  and  _378
REMARK  153  A    between atoms: _377  and  _380
REMARK  154  A    between atoms: _380  and  _381
REMARK  155  A    between atoms: _386  and  _388
REMARK  156  A    between atoms: _388  and  _389
REMARK  157  A    between atoms: _388  and  _391
REMARK  158  A    between atoms: _391  and  _392
REMARK                            x       y       z     vdW  Elec       q    Type
REMARK                         _______ _______ _______ _____ _____    ______ ____
ROOT
ATOM      1  O   HOH     1     103.647  12.451  12.374  0.00  0.00    +0.000 OA
ENDROOT
TORSDOF 0
REMARK  Name = ../refined-set-2016/4cu7/4cu7_pocket.pdb
REMARK  158 active torsions:
REMARK  status: ('A' for Active; 'I' for Inactive)
REMARK    1  A    between atoms: _1  and  _3
REMARK    2  A    between atoms: _3  and  _4
REMARK    3  A    between atoms: _3  and  _6
REMARK    4  A    between atoms: _6  and  _7
REMARK    5  A    between atoms: _7  and  _8
REMARK    6  A    between atoms: _11  and  _13
REMARK    7  A    between atoms: _13  and  _14
REMARK    8  A    between atoms: _13  and  _16
REMARK    9  A    between atoms: _16  and  _17
REMARK   10  A    between atoms: _17  and  _18
REMARK   11  A    between atoms: _18  and  _19
REMARK   12  A    between atoms: _28  and  _30
REMARK   13  A    between atoms: _30  and  _31
REMARK   14  A    between atoms: _30  and  _33
REMARK   15  A    between atoms: _33  and  _34
REMARK   16  A    between atoms: _44  and  _46
REMARK   17  A    between atoms: _46  and  _47
REMARK   18  A    between atoms: _46  and  _49
REMARK   19  A    between atoms: _49  and  _50
REMARK   20  A    between atoms: _52  and  _54
REMARK   21  A    between atoms: _54  and  _55
REMARK   22  A    between atoms: _54  and  _57
REMARK   23  A    between atoms: _57  and  _58
REMARK   24  A    between atoms: _63  and  _65
REMARK   25  A    between atoms: _65  and  _66
REMARK   26  A    between atoms: _65  and  _68
REMARK   27  A    between atoms: _68  and  _69
REMARK   28  A    between atoms: _69  and  _70
REMARK   29  A    between atoms: _70  and  _71
REMARK   30  A    between atoms: _80  and  _82
REMARK   31  A    between atoms: _82  and  _83
REMARK   32  A    between atoms: _82  and  _85
REMARK   33  A    between atoms: _85  and  _86
REMARK   34  A    between atoms: _89  and  _91
REMARK   35  A    between atoms: _91  and  _92
REMARK   36  A    between atoms: _91  and  _94
REMARK   37  A    between atoms: _94  and  _95
REMARK   38  A    between atoms: _100  and  _102
REMARK   39  A    between atoms: _102  and  _103
REMARK   40  A    between atoms: _102  and  _105
REMARK   41  A    between atoms: _105  and  _106
REMARK   42  A    between atoms: _106  and  _107
REMARK   43  A    between atoms: _110  and  _112
REMARK   44  A    between atoms: _112  and  _113
REMARK   45  A    between atoms: _112  and  _115
REMARK   46  A    between atoms: _115  and  _116
REMARK   47  A    between atoms: _119  and  _121
REMARK   48  A    between atoms: _121  and  _122
REMARK   49  A    between atoms: _121  and  _124
REMARK   50  A    between atoms: _124  and  _125
REMARK   51  A    between atoms: _125  and  _126
REMARK   52  A    between atoms: _126  and  _127
REMARK   53  A    between atoms: _127  and  _128
REMARK   54  A    between atoms: _132  and  _134
REMARK   55  A    between atoms: _134  and  _135
REMARK   56  A    between atoms: _134  and  _137
REMARK   57  A    between atoms: _137  and  _138
REMARK   58  A    between atoms: _143  and  _145
REMARK   59  A    between atoms: _145  and  _146
REMARK   60  A    between atoms: _145  and  _148
REMARK   61  A    between atoms: _148  and  _149
REMARK   62  A    between atoms: _149  and  _150
REMARK   63  A    between atoms: _153  and  _155
REMARK   64  A    between atoms: _155  and  _156
REMARK   65  A    between atoms: _158  and  _160
REMARK   66  A    between atoms: _160  and  _161
REMARK   67  A    between atoms: _160  and  _163
REMARK   68  A    between atoms: _163  and  _164
REMARK   69  A    between atoms: _167  and  _169
REMARK   70  A    between atoms: _169  and  _170
REMARK   71  A    between atoms: _169  and  _172
REMARK   72  A    between atoms: _172  and  _173
REMARK   73  A    between atoms: _173  and  _174
REMARK   74  A    between atoms: _174  and  _175
REMARK   75  A    between atoms: _184  and  _186
REMARK   76  A    between atoms: _186  and  _187
REMARK   77  A    between atoms: _186  and  _189
REMARK   78  A    between atoms: _189  and  _190
REMARK   79  A    between atoms: _195  and  _197
REMARK   80  A    between atoms: _197  and  _198
REMARK   81  A    between atoms: _197  and  _200
REMARK   82  A    between atoms: _200  and  _201
REMARK   83  A    between atoms: _206  and  _207
REMARK   84  A    between atoms: _209  and  _211
REMARK   85  A    between atoms: _211  and  _212
REMARK   86  A    between atoms: _211  and  _214
REMARK   87  A    between atoms: _214  and  _215
REMARK   88  A    between atoms: _215  and  _216
REMARK   89  A    between atoms: _219  and  _221
REMARK   90  A    between atoms: _221  and  _222
REMARK   91  A    between atoms: _221  and  _224
REMARK   92  A    between atoms: _224  and  _225
REMARK   93  A    between atoms: _228  and  _230
REMARK   94  A    between atoms: _230  and  _231
REMARK   95  A    between atoms: _230  and  _233
REMARK   96  A    between atoms: _233  and  _234
REMARK   97  A    between atoms: _236  and  _238
REMARK   98  A    between atoms: _238  and  _239
REMARK   99  A    between atoms: _238  and  _241
REMARK  100  A    between atoms: _241  and  _242
REMARK  101  A    between atoms: _244  and  _246
REMARK  102  A    between atoms: _246  and  _247
REMARK  103  A    between atoms: _250  and  _252
REMARK  104  A    between atoms: _252  and  _253
REMARK  105  A    between atoms: _252  and  _255
REMARK  106  A    between atoms: _255  and  _256
REMARK  107  A    between atoms: _259  and  _261
REMARK  108  A    between atoms: _261  and  _262
REMARK  109  A    between atoms: _261  and  _264
REMARK  110  A    between atoms: _264  and  _265
REMARK  111  A    between atoms: _270  and  _272
REMARK  112  A    between atoms: _272  and  _273
REMARK  113  A    between atoms: _272  and  _275
REMARK  114  A    between atoms: _278  and  _280
REMARK  115  A    between atoms: _280  and  _281
REMARK  116  A    between atoms: _283  and  _285
REMARK  117  A    between atoms: _285  and  _286
REMARK  118  A    between atoms: _285  and  _288
REMARK  119  A    between atoms: _288  and  _289
REMARK  120  A    between atoms: _299  and  _301
REMARK  121  A    between atoms: _301  and  _302
REMARK  122  A    between atoms: _304  and  _306
REMARK  123  A    between atoms: _306  and  _307
REMARK  124  A    between atoms: _306  and  _309
REMARK  125  A    between atoms: _309  and  _310
REMARK  126  A    between atoms: _310  and  _311
REMARK  127  A    between atoms: _311  and  _312
REMARK  128  A    between atoms: _312  and  _313
REMARK  129  A    between atoms: _317  and  _319
REMARK  130  A    between atoms: _319  and  _320
REMARK  131  A    between atoms: _319  and  _322
REMARK  132  A    between atoms: _322  and  _323
REMARK  133  A    between atoms: _333  and  _335
REMARK  134  A    between atoms: _335  and  _336
REMARK  135  A    between atoms: _335  and  _338
REMARK  136  A    between atoms: _338  and  _339
REMARK  137  A    between atoms: _342  and  _344
REMARK  138  A    between atoms: _344  and  _345
REMARK  139  A    between atoms: _344  and  _347
REMARK  140  A    between atoms: _347  and  _348
REMARK  141  A    between atoms: _353  and  _354
REMARK  142  A    between atoms: _356  and  _358
REMARK  143  A    between atoms: _358  and  _359
REMARK  144  A    between atoms: _358  and  _361
REMARK  145  A    between atoms: _361  and  _362
REMARK  146  A    between atoms: _362  and  _363
REMARK  147  A    between atoms: _366  and  _368
REMARK  148  A    between atoms: _368  and  _369
REMARK  149  A    between atoms: _368  and  _371
REMARK  150  A    between atoms: _371  and  _372
REMARK  151  A    between atoms: _375  and  _377
REMARK  152  A    between atoms: _377  and  _378
REMARK  153  A    between atoms: _377  and  _380
REMARK  154  A    between atoms: _380  and  _381
REMARK  155  A    between atoms: _386  and  _388
REMARK  156  A    between atoms: _388  and  _389
REMARK  157  A    between atoms: _388  and  _391
REMARK  158  A    between atoms: _391  and  _392
REMARK                            x       y       z     vdW  Elec       q    Type
REMARK                         _______ _______ _______ _____ _____    ______ ____
ROOT
ATOM      1  O   HOH     1     105.534   9.416  10.163  0.00  0.00    +0.000 OA
ENDROOT
TORSDOF 0
REMARK  Name = ../refined-set-2016/4cu7/4cu7_pocket.pdb
REMARK  158 active torsions:
REMARK  status: ('A' for Active; 'I' for Inactive)
REMARK    1  A    between atoms: _1  and  _3
REMARK    2  A    between atoms: _3  and  _4
REMARK    3  A    between atoms: _3  and  _6
REMARK    4  A    between atoms: _6  and  _7
REMARK    5  A    between atoms: _7  and  _8
REMARK    6  A    between atoms: _11  and  _13
REMARK    7  A    between atoms: _13  and  _14
REMARK    8  A    between atoms: _13  and  _16
REMARK    9  A    between atoms: _16  and  _17
REMARK   10  A    between atoms: _17  and  _18
REMARK   11  A    between atoms: _18  and  _19
REMARK   12  A    between atoms: _28  and  _30
REMARK   13  A    between atoms: _30  and  _31
REMARK   14  A    between atoms: _30  and  _33
REMARK   15  A    between atoms: _33  and  _34
REMARK   16  A    between atoms: _44  and  _46
REMARK   17  A    between atoms: _46  and  _47
REMARK   18  A    between atoms: _46  and  _49
REMARK   19  A    between atoms: _49  and  _50
REMARK   20  A    between atoms: _52  and  _54
REMARK   21  A    between atoms: _54  and  _55
REMARK   22  A    between atoms: _54  and  _57
REMARK   23  A    between atoms: _57  and  _58
REMARK   24  A    between atoms: _63  and  _65
REMARK   25  A    between atoms: _65  and  _66
REMARK   26  A    between atoms: _65  and  _68
REMARK   27  A    between atoms: _68  and  _69
REMARK   28  A    between atoms: _69  and  _70
REMARK   29  A    between atoms: _70  and  _71
REMARK   30  A    between atoms: _80  and  _82
REMARK   31  A    between atoms: _82  and  _83
REMARK   32  A    between atoms: _82  and  _85
REMARK   33  A    between atoms: _85  and  _86
REMARK   34  A    between atoms: _89  and  _91
REMARK   35  A    between atoms: _91  and  _92
REMARK   36  A    between atoms: _91  and  _94
REMARK   37  A    between atoms: _94  and  _95
REMARK   38  A    between atoms: _100  and  _102
REMARK   39  A    between atoms: _102  and  _103
REMARK   40  A    between atoms: _102  and  _105
REMARK   41  A    between atoms: _105  and  _106
REMARK   42  A    between atoms: _106  and  _107
REMARK   43  A    between atoms: _110  and  _112
REMARK   44  A    between atoms: _112  and  _113
REMARK   45  A    between atoms: _112  and  _115
REMARK   46  A    between atoms: _115  and  _116
REMARK   47  A    between atoms: _119  and  _121
REMARK   48  A    between atoms: _121  and  _122
REMARK   49  A    between atoms: _121  and  _124
REMARK   50  A    between atoms: _124  and  _125
REMARK   51  A    between atoms: _125  and  _126
REMARK   52  A    between atoms: _126  and  _127
REMARK   53  A    between atoms: _127  and  _128
REMARK   54  A    between atoms: _132  and  _134
REMARK   55  A    between atoms: _134  and  _135
REMARK   56  A    between atoms: _134  and  _137
REMARK   57  A    between atoms: _137  and  _138
REMARK   58  A    between atoms: _143  and  _145
REMARK   59  A    between atoms: _145  and  _146
REMARK   60  A    between atoms: _145  and  _148
REMARK   61  A    between atoms: _148  and  _149
REMARK   62  A    between atoms: _149  and  _150
REMARK   63  A    between atoms: _153  and  _155
REMARK   64  A    between atoms: _155  and  _156
REMARK   65  A    between atoms: _158  and  _160
REMARK   66  A    between atoms: _160  and  _161
REMARK   67  A    between atoms: _160  and  _163
REMARK   68  A    between atoms: _163  and  _164
REMARK   69  A    between atoms: _167  and  _169
REMARK   70  A    between atoms: _169  and  _170
REMARK   71  A    between atoms: _169  and  _172
REMARK   72  A    between atoms: _172  and  _173
REMARK   73  A    between atoms: _173  and  _174
REMARK   74  A    between atoms: _174  and  _175
REMARK   75  A    between atoms: _184  and  _186
REMARK   76  A    between atoms: _186  and  _187
REMARK   77  A    between atoms: _186  and  _189
REMARK   78  A    between atoms: _189  and  _190
REMARK   79  A    between atoms: _195  and  _197
REMARK   80  A    between atoms: _197  and  _198
REMARK   81  A    between atoms: _197  and  _200
REMARK   82  A    between atoms: _200  and  _201
REMARK   83  A    between atoms: _206  and  _207
REMARK   84  A    between atoms: _209  and  _211
REMARK   85  A    between atoms: _211  and  _212
REMARK   86  A    between atoms: _211  and  _214
REMARK   87  A    between atoms: _214  and  _215
REMARK   88  A    between atoms: _215  and  _216
REMARK   89  A    between atoms: _219  and  _221
REMARK   90  A    between atoms: _221  and  _222
REMARK   91  A    between atoms: _221  and  _224
REMARK   92  A    between atoms: _224  and  _225
REMARK   93  A    between atoms: _228  and  _230
REMARK   94  A    between atoms: _230  and  _231
REMARK   95  A    between atoms: _230  and  _233
REMARK   96  A    between atoms: _233  and  _234
REMARK   97  A    between atoms: _236  and  _238
REMARK   98  A    between atoms: _238  and  _239
REMARK   99  A    between atoms: _238  and  _241
REMARK  100  A    between atoms: _241  and  _242
REMARK  101  A    between atoms: _244  and  _246
REMARK  102  A    between atoms: _246  and  _247
REMARK  103  A    between atoms: _250  and  _252
REMARK  104  A    between atoms: _252  and  _253
REMARK  105  A    between atoms: _252  and  _255
REMARK  106  A    between atoms: _255  and  _256
REMARK  107  A    between atoms: _259  and  _261
REMARK  108  A    between atoms: _261  and  _262
REMARK  109  A    between atoms: _261  and  _264
REMARK  110  A    between atoms: _264  and  _265
REMARK  111  A    between atoms: _270  and  _272
REMARK  112  A    between atoms: _272  and  _273
REMARK  113  A    between atoms: _272  and  _275
REMARK  114  A    between atoms: _278  and  _280
REMARK  115  A    between atoms: _280  and  _281
REMARK  116  A    between atoms: _283  and  _285
REMARK  117  A    between atoms: _285  and  _286
REMARK  118  A    between atoms: _285  and  _288
REMARK  119  A    between atoms: _288  and  _289
REMARK  120  A    between atoms: _299  and  _301
REMARK  121  A    between atoms: _301  and  _302
REMARK  122  A    between atoms: _304  and  _306
REMARK  123  A    between atoms: _306  and  _307
REMARK  124  A    between atoms: _306  and  _309
REMARK  125  A    between atoms: _309  and  _310
REMARK  126  A    between atoms: _310  and  _311
REMARK  127  A    between atoms: _311  and  _312
REMARK  128  A    between atoms: _312  and  _313
REMARK  129  A    between atoms: _317  and  _319
REMARK  130  A    between atoms: _319  and  _320
REMARK  131  A    between atoms: _319  and  _322
REMARK  132  A    between atoms: _322  and  _323
REMARK  133  A    between atoms: _333  and  _335
REMARK  134  A    between atoms: _335  and  _336
REMARK  135  A    between atoms: _335  and  _338
REMARK  136  A    between atoms: _338  and  _339
REMARK  137  A    between atoms: _342  and  _344
REMARK  138  A    between atoms: _344  and  _345
REMARK  139  A    between atoms: _344  and  _347
REMARK  140  A    between atoms: _347  and  _348
REMARK  141  A    between atoms: _353  and  _354
REMARK  142  A    between atoms: _356  and  _358
REMARK  143  A    between atoms: _358  and  _359
REMARK  144  A    between atoms: _358  and  _361
REMARK  145  A    between atoms: _361  and  _362
REMARK  146  A    between atoms: _362  and  _363
REMARK  147  A    between atoms: _366  and  _368
REMARK  148  A    between atoms: _368  and  _369
REMARK  149  A    between atoms: _368  and  _371
REMARK  150  A    between atoms: _371  and  _372
REMARK  151  A    between atoms: _375  and  _377
REMARK  152  A    between atoms: _377  and  _378
REMARK  153  A    between atoms: _377  and  _380
REMARK  154  A    between atoms: _380  and  _381
REMARK  155  A    between atoms: _386  and  _388
REMARK  156  A    between atoms: _388  and  _389
REMARK  157  A    between atoms: _388  and  _391
REMARK  158  A    between atoms: _391  and  _392
REMARK                            x       y       z     vdW  Elec       q    Type
REMARK                         _______ _______ _______ _____ _____    ______ ____
ROOT
ATOM      1  O   HOH     1      98.581  10.777  -2.436  0.00  0.00    +0.000 OA
ENDROOT
TORSDOF 0
REMARK  Name = ../refined-set-2016/4cu7/4cu7_pocket.pdb
REMARK  158 active torsions:
REMARK  status: ('A' for Active; 'I' for Inactive)
REMARK    1  A    between atoms: _1  and  _3
REMARK    2  A    between atoms: _3  and  _4
REMARK    3  A    between atoms: _3  and  _6
REMARK    4  A    between atoms: _6  and  _7
REMARK    5  A    between atoms: _7  and  _8
REMARK    6  A    between atoms: _11  and  _13
REMARK    7  A    between atoms: _13  and  _14
REMARK    8  A    between atoms: _13  and  _16
REMARK    9  A    between atoms: _16  and  _17
REMARK   10  A    between atoms: _17  and  _18
REMARK   11  A    between atoms: _18  and  _19
REMARK   12  A    between atoms: _28  and  _30
REMARK   13  A    between atoms: _30  and  _31
REMARK   14  A    between atoms: _30  and  _33
REMARK   15  A    between atoms: _33  and  _34
REMARK   16  A    between atoms: _44  and  _46
REMARK   17  A    between atoms: _46  and  _47
REMARK   18  A    between atoms: _46  and  _49
REMARK   19  A    between atoms: _49  and  _50
REMARK   20  A    between atoms: _52  and  _54
REMARK   21  A    between atoms: _54  and  _55
REMARK   22  A    between atoms: _54  and  _57
REMARK   23  A    between atoms: _57  and  _58
REMARK   24  A    between atoms: _63  and  _65
REMARK   25  A    between atoms: _65  and  _66
REMARK   26  A    between atoms: _65  and  _68
REMARK   27  A    between atoms: _68  and  _69
REMARK   28  A    between atoms: _69  and  _70
REMARK   29  A    between atoms: _70  and  _71
REMARK   30  A    between atoms: _80  and  _82
REMARK   31  A    between atoms: _82  and  _83
REMARK   32  A    between atoms: _82  and  _85
REMARK   33  A    between atoms: _85  and  _86
REMARK   34  A    between atoms: _89  and  _91
REMARK   35  A    between atoms: _91  and  _92
REMARK   36  A    between atoms: _91  and  _94
REMARK   37  A    between atoms: _94  and  _95
REMARK   38  A    between atoms: _100  and  _102
REMARK   39  A    between atoms: _102  and  _103
REMARK   40  A    between atoms: _102  and  _105
REMARK   41  A    between atoms: _105  and  _106
REMARK   42  A    between atoms: _106  and  _107
REMARK   43  A    between atoms: _110  and  _112
REMARK   44  A    between atoms: _112  and  _113
REMARK   45  A    between atoms: _112  and  _115
REMARK   46  A    between atoms: _115  and  _116
REMARK   47  A    between atoms: _119  and  _121
REMARK   48  A    between atoms: _121  and  _122
REMARK   49  A    between atoms: _121  and  _124
REMARK   50  A    between atoms: _124  and  _125
REMARK   51  A    between atoms: _125  and  _126
REMARK   52  A    between atoms: _126  and  _127
REMARK   53  A    between atoms: _127  and  _128
REMARK   54  A    between atoms: _132  and  _134
REMARK   55  A    between atoms: _134  and  _135
REMARK   56  A    between atoms: _134  and  _137
REMARK   57  A    between atoms: _137  and  _138
REMARK   58  A    between atoms: _143  and  _145
REMARK   59  A    between atoms: _145  and  _146
REMARK   60  A    between atoms: _145  and  _148
REMARK   61  A    between atoms: _148  and  _149
REMARK   62  A    between atoms: _149  and  _150
REMARK   63  A    between atoms: _153  and  _155
REMARK   64  A    between atoms: _155  and  _156
REMARK   65  A    between atoms: _158  and  _160
REMARK   66  A    between atoms: _160  and  _161
REMARK   67  A    between atoms: _160  and  _163
REMARK   68  A    between atoms: _163  and  _164
REMARK   69  A    between atoms: _167  and  _169
REMARK   70  A    between atoms: _169  and  _170
REMARK   71  A    between atoms: _169  and  _172
REMARK   72  A    between atoms: _172  and  _173
REMARK   73  A    between atoms: _173  and  _174
REMARK   74  A    between atoms: _174  and  _175
REMARK   75  A    between atoms: _184  and  _186
REMARK   76  A    between atoms: _186  and  _187
REMARK   77  A    between atoms: _186  and  _189
REMARK   78  A    between atoms: _189  and  _190
REMARK   79  A    between atoms: _195  and  _197
REMARK   80  A    between atoms: _197  and  _198
REMARK   81  A    between atoms: _197  and  _200
REMARK   82  A    between atoms: _200  and  _201
REMARK   83  A    between atoms: _206  and  _207
REMARK   84  A    between atoms: _209  and  _211
REMARK   85  A    between atoms: _211  and  _212
REMARK   86  A    between atoms: _211  and  _214
REMARK   87  A    between atoms: _214  and  _215
REMARK   88  A    between atoms: _215  and  _216
REMARK   89  A    between atoms: _219  and  _221
REMARK   90  A    between atoms: _221  and  _222
REMARK   91  A    between atoms: _221  and  _224
REMARK   92  A    between atoms: _224  and  _225
REMARK   93  A    between atoms: _228  and  _230
REMARK   94  A    between atoms: _230  and  _231
REMARK   95  A    between atoms: _230  and  _233
REMARK   96  A    between atoms: _233  and  _234
REMARK   97  A    between atoms: _236  and  _238
REMARK   98  A    between atoms: _238  and  _239
REMARK   99  A    between atoms: _238  and  _241
REMARK  100  A    between atoms: _241  and  _242
REMARK  101  A    between atoms: _244  and  _246
REMARK  102  A    between atoms: _246  and  _247
REMARK  103  A    between atoms: _250  and  _252
REMARK  104  A    between atoms: _252  and  _253
REMARK  105  A    between atoms: _252  and  _255
REMARK  106  A    between atoms: _255  and  _256
REMARK  107  A    between atoms: _259  and  _261
REMARK  108  A    between atoms: _261  and  _262
REMARK  109  A    between atoms: _261  and  _264
REMARK  110  A    between atoms: _264  and  _265
REMARK  111  A    between atoms: _270  and  _272
REMARK  112  A    between atoms: _272  and  _273
REMARK  113  A    between atoms: _272  and  _275
REMARK  114  A    between atoms: _278  and  _280
REMARK  115  A    between atoms: _280  and  _281
REMARK  116  A    between atoms: _283  and  _285
REMARK  117  A    between atoms: _285  and  _286
REMARK  118  A    between atoms: _285  and  _288
REMARK  119  A    between atoms: _288  and  _289
REMARK  120  A    between atoms: _299  and  _301
REMARK  121  A    between atoms: _301  and  _302
REMARK  122  A    between atoms: _304  and  _306
REMARK  123  A    between atoms: _306  and  _307
REMARK  124  A    between atoms: _306  and  _309
REMARK  125  A    between atoms: _309  and  _310
REMARK  126  A    between atoms: _310  and  _311
REMARK  127  A    between atoms: _311  and  _312
REMARK  128  A    between atoms: _312  and  _313
REMARK  129  A    between atoms: _317  and  _319
REMARK  130  A    between atoms: _319  and  _320
REMARK  131  A    between atoms: _319  and  _322
REMARK  132  A    between atoms: _322  and  _323
REMARK  133  A    between atoms: _333  and  _335
REMARK  134  A    between atoms: _335  and  _336
REMARK  135  A    between atoms: _335  and  _338
REMARK  136  A    between atoms: _338  and  _339
REMARK  137  A    between atoms: _342  and  _344
REMARK  138  A    between atoms: _344  and  _345
REMARK  139  A    between atoms: _344  and  _347
REMARK  140  A    between atoms: _347  and  _348
REMARK  141  A    between atoms: _353  and  _354
REMARK  142  A    between atoms: _356  and  _358
REMARK  143  A    between atoms: _358  and  _359
REMARK  144  A    between atoms: _358  and  _361
REMARK  145  A    between atoms: _361  and  _362
REMARK  146  A    between atoms: _362  and  _363
REMARK  147  A    between atoms: _366  and  _368
REMARK  148  A    between atoms: _368  and  _369
REMARK  149  A    between atoms: _368  and  _371
REMARK  150  A    between atoms: _371  and  _372
REMARK  151  A    between atoms: _375  and  _377
REMARK  152  A    between atoms: _377  and  _378
REMARK  153  A    between atoms: _377  and  _380
REMARK  154  A    between atoms: _380  and  _381
REMARK  155  A    between atoms: _386  and  _388
REMARK  156  A    between atoms: _388  and  _389
REMARK  157  A    between atoms: _388  and  _391
REMARK  158  A    between atoms: _391  and  _392
REMARK                            x       y       z     vdW  Elec       q    Type
REMARK                         _______ _______ _______ _____ _____    ______ ____
ROOT
ATOM      1  O   HOH     1     101.992  11.787   2.702  0.00  0.00    +0.000 OA
ENDROOT
TORSDOF 0
REMARK  Name = ../refined-set-2016/4cu7/4cu7_pocket.pdb
REMARK  158 active torsions:
REMARK  status: ('A' for Active; 'I' for Inactive)
REMARK    1  A    between atoms: _1  and  _3
REMARK    2  A    between atoms: _3  and  _4
REMARK    3  A    between atoms: _3  and  _6
REMARK    4  A    between atoms: _6  and  _7
REMARK    5  A    between atoms: _7  and  _8
REMARK    6  A    between atoms: _11  and  _13
REMARK    7  A    between atoms: _13  and  _14
REMARK    8  A    between atoms: _13  and  _16
REMARK    9  A    between atoms: _16  and  _17
REMARK   10  A    between atoms: _17  and  _18
REMARK   11  A    between atoms: _18  and  _19
REMARK   12  A    between atoms: _28  and  _30
REMARK   13  A    between atoms: _30  and  _31
REMARK   14  A    between atoms: _30  and  _33
REMARK   15  A    between atoms: _33  and  _34
REMARK   16  A    between atoms: _44  and  _46
REMARK   17  A    between atoms: _46  and  _47
REMARK   18  A    between atoms: _46  and  _49
REMARK   19  A    between atoms: _49  and  _50
REMARK   20  A    between atoms: _52  and  _54
REMARK   21  A    between atoms: _54  and  _55
REMARK   22  A    between atoms: _54  and  _57
REMARK   23  A    between atoms: _57  and  _58
REMARK   24  A    between atoms: _63  and  _65
REMARK   25  A    between atoms: _65  and  _66
REMARK   26  A    between atoms: _65  and  _68
REMARK   27  A    between atoms: _68  and  _69
REMARK   28  A    between atoms: _69  and  _70
REMARK   29  A    between atoms: _70  and  _71
REMARK   30  A    between atoms: _80  and  _82
REMARK   31  A    between atoms: _82  and  _83
REMARK   32  A    between atoms: _82  and  _85
REMARK   33  A    between atoms: _85  and  _86
REMARK   34  A    between atoms: _89  and  _91
REMARK   35  A    between atoms: _91  and  _92
REMARK   36  A    between atoms: _91  and  _94
REMARK   37  A    between atoms: _94  and  _95
REMARK   38  A    between atoms: _100  and  _102
REMARK   39  A    between atoms: _102  and  _103
REMARK   40  A    between atoms: _102  and  _105
REMARK   41  A    between atoms: _105  and  _106
REMARK   42  A    between atoms: _106  and  _107
REMARK   43  A    between atoms: _110  and  _112
REMARK   44  A    between atoms: _112  and  _113
REMARK   45  A    between atoms: _112  and  _115
REMARK   46  A    between atoms: _115  and  _116
REMARK   47  A    between atoms: _119  and  _121
REMARK   48  A    between atoms: _121  and  _122
REMARK   49  A    between atoms: _121  and  _124
REMARK   50  A    between atoms: _124  and  _125
REMARK   51  A    between atoms: _125  and  _126
REMARK   52  A    between atoms: _126  and  _127
REMARK   53  A    between atoms: _127  and  _128
REMARK   54  A    between atoms: _132  and  _134
REMARK   55  A    between atoms: _134  and  _135
REMARK   56  A    between atoms: _134  and  _137
REMARK   57  A    between atoms: _137  and  _138
REMARK   58  A    between atoms: _143  and  _145
REMARK   59  A    between atoms: _145  and  _146
REMARK   60  A    between atoms: _145  and  _148
REMARK   61  A    between atoms: _148  and  _149
REMARK   62  A    between atoms: _149  and  _150
REMARK   63  A    between atoms: _153  and  _155
REMARK   64  A    between atoms: _155  and  _156
REMARK   65  A    between atoms: _158  and  _160
REMARK   66  A    between atoms: _160  and  _161
REMARK   67  A    between atoms: _160  and  _163
REMARK   68  A    between atoms: _163  and  _164
REMARK   69  A    between atoms: _167  and  _169
REMARK   70  A    between atoms: _169  and  _170
REMARK   71  A    between atoms: _169  and  _172
REMARK   72  A    between atoms: _172  and  _173
REMARK   73  A    between atoms: _173  and  _174
REMARK   74  A    between atoms: _174  and  _175
REMARK   75  A    between atoms: _184  and  _186
REMARK   76  A    between atoms: _186  and  _187
REMARK   77  A    between atoms: _186  and  _189
REMARK   78  A    between atoms: _189  and  _190
REMARK   79  A    between atoms: _195  and  _197
REMARK   80  A    between atoms: _197  and  _198
REMARK   81  A    between atoms: _197  and  _200
REMARK   82  A    between atoms: _200  and  _201
REMARK   83  A    between atoms: _206  and  _207
REMARK   84  A    between atoms: _209  and  _211
REMARK   85  A    between atoms: _211  and  _212
REMARK   86  A    between atoms: _211  and  _214
REMARK   87  A    between atoms: _214  and  _215
REMARK   88  A    between atoms: _215  and  _216
REMARK   89  A    between atoms: _219  and  _221
REMARK   90  A    between atoms: _221  and  _222
REMARK   91  A    between atoms: _221  and  _224
REMARK   92  A    between atoms: _224  and  _225
REMARK   93  A    between atoms: _228  and  _230
REMARK   94  A    between atoms: _230  and  _231
REMARK   95  A    between atoms: _230  and  _233
REMARK   96  A    between atoms: _233  and  _234
REMARK   97  A    between atoms: _236  and  _238
REMARK   98  A    between atoms: _238  and  _239
REMARK   99  A    between atoms: _238  and  _241
REMARK  100  A    between atoms: _241  and  _242
REMARK  101  A    between atoms: _244  and  _246
REMARK  102  A    between atoms: _246  and  _247
REMARK  103  A    between atoms: _250  and  _252
REMARK  104  A    between atoms: _252  and  _253
REMARK  105  A    between atoms: _252  and  _255
REMARK  106  A    between atoms: _255  and  _256
REMARK  107  A    between atoms: _259  and  _261
REMARK  108  A    between atoms: _261  and  _262
REMARK  109  A    between atoms: _261  and  _264
REMARK  110  A    between atoms: _264  and  _265
REMARK  111  A    between atoms: _270  and  _272
REMARK  112  A    between atoms: _272  and  _273
REMARK  113  A    between atoms: _272  and  _275
REMARK  114  A    between atoms: _278  and  _280
REMARK  115  A    between atoms: _280  and  _281
REMARK  116  A    between atoms: _283  and  _285
REMARK  117  A    between atoms: _285  and  _286
REMARK  118  A    between atoms: _285  and  _288
REMARK  119  A    between atoms: _288  and  _289
REMARK  120  A    between atoms: _299  and  _301
REMARK  121  A    between atoms: _301  and  _302
REMARK  122  A    between atoms: _304  and  _306
REMARK  123  A    between atoms: _306  and  _307
REMARK  124  A    between atoms: _306  and  _309
REMARK  125  A    between atoms: _309  and  _310
REMARK  126  A    between atoms: _310  and  _311
REMARK  127  A    between atoms: _311  and  _312
REMARK  128  A    between atoms: _312  and  _313
REMARK  129  A    between atoms: _317  and  _319
REMARK  130  A    between atoms: _319  and  _320
REMARK  131  A    between atoms: _319  and  _322
REMARK  132  A    between atoms: _322  and  _323
REMARK  133  A    between atoms: _333  and  _335
REMARK  134  A    between atoms: _335  and  _336
REMARK  135  A    between atoms: _335  and  _338
REMARK  136  A    between atoms: _338  and  _339
REMARK  137  A    between atoms: _342  and  _344
REMARK  138  A    between atoms: _344  and  _345
REMARK  139  A    between atoms: _344  and  _347
REMARK  140  A    between atoms: _347  and  _348
REMARK  141  A    between atoms: _353  and  _354
REMARK  142  A    between atoms: _356  and  _358
REMARK  143  A    between atoms: _358  and  _359
REMARK  144  A    between atoms: _358  and  _361
REMARK  145  A    between atoms: _361  and  _362
REMARK  146  A    between atoms: _362  and  _363
REMARK  147  A    between atoms: _366  and  _368
REMARK  148  A    between atoms: _368  and  _369
REMARK  149  A    between atoms: _368  and  _371
REMARK  150  A    between atoms: _371  and  _372
REMARK  151  A    between atoms: _375  and  _377
REMARK  152  A    between atoms: _377  and  _378
REMARK  153  A    between atoms: _377  and  _380
REMARK  154  A    between atoms: _380  and  _381
REMARK  155  A    between atoms: _386  and  _388
REMARK  156  A    between atoms: _388  and  _389
REMARK  157  A    between atoms: _388  and  _391
REMARK  158  A    between atoms: _391  and  _392
REMARK                            x       y       z     vdW  Elec       q    Type
REMARK                         _______ _______ _______ _____ _____    ______ ____
ROOT
ATOM      1  O   HOH     1     102.216  13.029   6.142  0.00  0.00    +0.000 OA
ENDROOT
TORSDOF 0
REMARK  Name = ../refined-set-2016/4cu7/4cu7_pocket.pdb
REMARK  158 active torsions:
REMARK  status: ('A' for Active; 'I' for Inactive)
REMARK    1  A    between atoms: _1  and  _3
REMARK    2  A    between atoms: _3  and  _4
REMARK    3  A    between atoms: _3  and  _6
REMARK    4  A    between atoms: _6  and  _7
REMARK    5  A    between atoms: _7  and  _8
REMARK    6  A    between atoms: _11  and  _13
REMARK    7  A    between atoms: _13  and  _14
REMARK    8  A    between atoms: _13  and  _16
REMARK    9  A    between atoms: _16  and  _17
REMARK   10  A    between atoms: _17  and  _18
REMARK   11  A    between atoms: _18  and  _19
REMARK   12  A    between atoms: _28  and  _30
REMARK   13  A    between atoms: _30  and  _31
REMARK   14  A    between atoms: _30  and  _33
REMARK   15  A    between atoms: _33  and  _34
REMARK   16  A    between atoms: _44  and  _46
REMARK   17  A    between atoms: _46  and  _47
REMARK   18  A    between atoms: _46  and  _49
REMARK   19  A    between atoms: _49  and  _50
REMARK   20  A    between atoms: _52  and  _54
REMARK   21  A    between atoms: _54  and  _55
REMARK   22  A    between atoms: _54  and  _57
REMARK   23  A    between atoms: _57  and  _58
REMARK   24  A    between atoms: _63  and  _65
REMARK   25  A    between atoms: _65  and  _66
REMARK   26  A    between atoms: _65  and  _68
REMARK   27  A    between atoms: _68  and  _69
REMARK   28  A    between atoms: _69  and  _70
REMARK   29  A    between atoms: _70  and  _71
REMARK   30  A    between atoms: _80  and  _82
REMARK   31  A    between atoms: _82  and  _83
REMARK   32  A    between atoms: _82  and  _85
REMARK   33  A    between atoms: _85  and  _86
REMARK   34  A    between atoms: _89  and  _91
REMARK   35  A    between atoms: _91  and  _92
REMARK   36  A    between atoms: _91  and  _94
REMARK   37  A    between atoms: _94  and  _95
REMARK   38  A    between atoms: _100  and  _102
REMARK   39  A    between atoms: _102  and  _103
REMARK   40  A    between atoms: _102  and  _105
REMARK   41  A    between atoms: _105  and  _106
REMARK   42  A    between atoms: _106  and  _107
REMARK   43  A    between atoms: _110  and  _112
REMARK   44  A    between atoms: _112  and  _113
REMARK   45  A    between atoms: _112  and  _115
REMARK   46  A    between atoms: _115  and  _116
REMARK   47  A    between atoms: _119  and  _121
REMARK   48  A    between atoms: _121  and  _122
REMARK   49  A    between atoms: _121  and  _124
REMARK   50  A    between atoms: _124  and  _125
REMARK   51  A    between atoms: _125  and  _126
REMARK   52  A    between atoms: _126  and  _127
REMARK   53  A    between atoms: _127  and  _128
REMARK   54  A    between atoms: _132  and  _134
REMARK   55  A    between atoms: _134  and  _135
REMARK   56  A    between atoms: _134  and  _137
REMARK   57  A    between atoms: _137  and  _138
REMARK   58  A    between atoms: _143  and  _145
REMARK   59  A    between atoms: _145  and  _146
REMARK   60  A    between atoms: _145  and  _148
REMARK   61  A    between atoms: _148  and  _149
REMARK   62  A    between atoms: _149  and  _150
REMARK   63  A    between atoms: _153  and  _155
REMARK   64  A    between atoms: _155  and  _156
REMARK   65  A    between atoms: _158  and  _160
REMARK   66  A    between atoms: _160  and  _161
REMARK   67  A    between atoms: _160  and  _163
REMARK   68  A    between atoms: _163  and  _164
REMARK   69  A    between atoms: _167  and  _169
REMARK   70  A    between atoms: _169  and  _170
REMARK   71  A    between atoms: _169  and  _172
REMARK   72  A    between atoms: _172  and  _173
REMARK   73  A    between atoms: _173  and  _174
REMARK   74  A    between atoms: _174  and  _175
REMARK   75  A    between atoms: _184  and  _186
REMARK   76  A    between atoms: _186  and  _187
REMARK   77  A    between atoms: _186  and  _189
REMARK   78  A    between atoms: _189  and  _190
REMARK   79  A    between atoms: _195  and  _197
REMARK   80  A    between atoms: _197  and  _198
REMARK   81  A    between atoms: _197  and  _200
REMARK   82  A    between atoms: _200  and  _201
REMARK   83  A    between atoms: _206  and  _207
REMARK   84  A    between atoms: _209  and  _211
REMARK   85  A    between atoms: _211  and  _212
REMARK   86  A    between atoms: _211  and  _214
REMARK   87  A    between atoms: _214  and  _215
REMARK   88  A    between atoms: _215  and  _216
REMARK   89  A    between atoms: _219  and  _221
REMARK   90  A    between atoms: _221  and  _222
REMARK   91  A    between atoms: _221  and  _224
REMARK   92  A    between atoms: _224  and  _225
REMARK   93  A    between atoms: _228  and  _230
REMARK   94  A    between atoms: _230  and  _231
REMARK   95  A    between atoms: _230  and  _233
REMARK   96  A    between atoms: _233  and  _234
REMARK   97  A    between atoms: _236  and  _238
REMARK   98  A    between atoms: _238  and  _239
REMARK   99  A    between atoms: _238  and  _241
REMARK  100  A    between atoms: _241  and  _242
REMARK  101  A    between atoms: _244  and  _246
REMARK  102  A    between atoms: _246  and  _247
REMARK  103  A    between atoms: _250  and  _252
REMARK  104  A    between atoms: _252  and  _253
REMARK  105  A    between atoms: _252  and  _255
REMARK  106  A    between atoms: _255  and  _256
REMARK  107  A    between atoms: _259  and  _261
REMARK  108  A    between atoms: _261  and  _262
REMARK  109  A    between atoms: _261  and  _264
REMARK  110  A    between atoms: _264  and  _265
REMARK  111  A    between atoms: _270  and  _272
REMARK  112  A    between atoms: _272  and  _273
REMARK  113  A    between atoms: _272  and  _275
REMARK  114  A    between atoms: _278  and  _280
REMARK  115  A    between atoms: _280  and  _281
REMARK  116  A    between atoms: _283  and  _285
REMARK  117  A    between atoms: _285  and  _286
REMARK  118  A    between atoms: _285  and  _288
REMARK  119  A    between atoms: _288  and  _289
REMARK  120  A    between atoms: _299  and  _301
REMARK  121  A    between atoms: _301  and  _302
REMARK  122  A    between atoms: _304  and  _306
REMARK  123  A    between atoms: _306  and  _307
REMARK  124  A    between atoms: _306  and  _309
REMARK  125  A    between atoms: _309  and  _310
REMARK  126  A    between atoms: _310  and  _311
REMARK  127  A    between atoms: _311  and  _312
REMARK  128  A    between atoms: _312  and  _313
REMARK  129  A    between atoms: _317  and  _319
REMARK  130  A    between atoms: _319  and  _320
REMARK  131  A    between atoms: _319  and  _322
REMARK  132  A    between atoms: _322  and  _323
REMARK  133  A    between atoms: _333  and  _335
REMARK  134  A    between atoms: _335  and  _336
REMARK  135  A    between atoms: _335  and  _338
REMARK  136  A    between atoms: _338  and  _339
REMARK  137  A    between atoms: _342  and  _344
REMARK  138  A    between atoms: _344  and  _345
REMARK  139  A    between atoms: _344  and  _347
REMARK  140  A    between atoms: _347  and  _348
REMARK  141  A    between atoms: _353  and  _354
REMARK  142  A    between atoms: _356  and  _358
REMARK  143  A    between atoms: _358  and  _359
REMARK  144  A    between atoms: _358  and  _361
REMARK  145  A    between atoms: _361  and  _362
REMARK  146  A    between atoms: _362  and  _363
REMARK  147  A    between atoms: _366  and  _368
REMARK  148  A    between atoms: _368  and  _369
REMARK  149  A    between atoms: _368  and  _371
REMARK  150  A    between atoms: _371  and  _372
REMARK  151  A    between atoms: _375  and  _377
REMARK  152  A    between atoms: _377  and  _378
REMARK  153  A    between atoms: _377  and  _380
REMARK  154  A    between atoms: _380  and  _381
REMARK  155  A    between atoms: _386  and  _388
REMARK  156  A    between atoms: _388  and  _389
REMARK  157  A    between atoms: _388  and  _391
REMARK  158  A    between atoms: _391  and  _392
REMARK                            x       y       z     vdW  Elec       q    Type
REMARK                         _______ _______ _______ _____ _____    ______ ____
ROOT
ATOM      1  O   HOH     1     104.942  10.763   6.517  0.00  0.00    +0.000 OA
ENDROOT
TORSDOF 0
