REMARK  Name = ../refined-set-2016/1lyb/1lyb_pocket.pdb
REMARK  268 active torsions:
REMARK  status: ('A' for Active; 'I' for Inactive)
REMARK    1  A    between atoms: _1  and  _3
REMARK    2  A    between atoms: _3  and  _4
REMARK    3  A    between atoms: _3  and  _6
REMARK    4  A    between atoms: _6  and  _7
REMARK    5  A    between atoms: _7  and  _8
REMARK    6  A    between atoms: _10  and  _12
REMARK    7  A    between atoms: _12  and  _13
REMARK    8  A    between atoms: _12  and  _15
REMARK    9  A    between atoms: _15  and  _16
REMARK   10  A    between atoms: _19  and  _21
REMARK   11  A    between atoms: _21  and  _22
REMARK   12  A    between atoms: _25  and  _27
REMARK   13  A    between atoms: _27  and  _28
REMARK   14  A    between atoms: _27  and  _30
REMARK   15  A    between atoms: _30  and  _31
REMARK   16  A    between atoms: _31  and  _32
REMARK   17  A    between atoms: _37  and  _39
REMARK   18  A    between atoms: _39  and  _40
REMARK   19  A    between atoms: _39  and  _42
REMARK   20  A    between atoms: _42  and  _43
REMARK   21  A    between atoms: _48  and  _49
REMARK   22  A    between atoms: _51  and  _53
REMARK   23  A    between atoms: _53  and  _54
REMARK   24  A    between atoms: _53  and  _56
REMARK   25  A    between atoms: _59  and  _61
REMARK   26  A    between atoms: _61  and  _62
REMARK   27  A    between atoms: _61  and  _64
REMARK   28  A    between atoms: _67  and  _69
REMARK   29  A    between atoms: _69  and  _70
REMARK   30  A    between atoms: _69  and  _72
REMARK   31  A    between atoms: _72  and  _73
REMARK   32  A    between atoms: _79  and  _81
REMARK   33  A    between atoms: _81  and  _82
REMARK   34  A    between atoms: _81  and  _84
REMARK   35  A    between atoms: _84  and  _85
REMARK   36  A    between atoms: _88  and  _90
REMARK   37  A    between atoms: _90  and  _91
REMARK   38  A    between atoms: _90  and  _93
REMARK   39  A    between atoms: _93  and  _94
REMARK   40  A    between atoms: _97  and  _99
REMARK   41  A    between atoms: _99  and  _100
REMARK   42  A    between atoms: _102  and  _104
REMARK   43  A    between atoms: _104  and  _105
REMARK   44  A    between atoms: _104  and  _107
REMARK   45  A    between atoms: _107  and  _108
REMARK   46  A    between atoms: _110  and  _112
REMARK   47  A    between atoms: _112  and  _113
REMARK   48  A    between atoms: _112  and  _115
REMARK   49  A    between atoms: _115  and  _116
REMARK   50  A    between atoms: _118  and  _120
REMARK   51  A    between atoms: _120  and  _121
REMARK   52  A    between atoms: _120  and  _123
REMARK   53  A    between atoms: _123  and  _124
REMARK   54  A    between atoms: _129  and  _131
REMARK   55  A    between atoms: _131  and  _132
REMARK   56  A    between atoms: _131  and  _134
REMARK   57  A    between atoms: _134  and  _135
REMARK   58  A    between atoms: _145  and  _147
REMARK   59  A    between atoms: _147  and  _148
REMARK   60  A    between atoms: _147  and  _150
REMARK   61  A    between atoms: _150  and  _151
REMARK   62  A    between atoms: _154  and  _156
REMARK   63  A    between atoms: _156  and  _157
REMARK   64  A    between atoms: _156  and  _159
REMARK   65  A    between atoms: _159  and  _160
REMARK   66  A    between atoms: _163  and  _165
REMARK   67  A    between atoms: _165  and  _166
REMARK   68  A    between atoms: _165  and  _168
REMARK   69  A    between atoms: _168  and  _169
REMARK   70  A    between atoms: _174  and  _176
REMARK   71  A    between atoms: _176  and  _177
REMARK   72  A    between atoms: _176  and  _179
REMARK   73  A    between atoms: _179  and  _180
REMARK   74  A    between atoms: _185  and  _186
REMARK   75  A    between atoms: _188  and  _190
REMARK   76  A    between atoms: _190  and  _191
REMARK   77  A    between atoms: _193  and  _195
REMARK   78  A    between atoms: _195  and  _196
REMARK   79  A    between atoms: _195  and  _198
REMARK   80  A    between atoms: _198  and  _199
REMARK   81  A    between atoms: _201  and  _203
REMARK   82  A    between atoms: _203  and  _204
REMARK   83  A    between atoms: _206  and  _208
REMARK   84  A    between atoms: _208  and  _209
REMARK   85  A    between atoms: _208  and  _211
REMARK   86  A    between atoms: _211  and  _212
REMARK   87  A    between atoms: _214  and  _216
REMARK   88  A    between atoms: _216  and  _217
REMARK   89  A    between atoms: _216  and  _219
REMARK   90  A    between atoms: _219  and  _220
REMARK   91  A    between atoms: _223  and  _225
REMARK   92  A    between atoms: _225  and  _226
REMARK   93  A    between atoms: _225  and  _228
REMARK   94  A    between atoms: _228  and  _229
REMARK   95  A    between atoms: _232  and  _234
REMARK   96  A    between atoms: _234  and  _235
REMARK   97  A    between atoms: _234  and  _237
REMARK   98  A    between atoms: _237  and  _238
REMARK   99  A    between atoms: _244  and  _246
REMARK  100  A    between atoms: _246  and  _247
REMARK  101  A    between atoms: _250  and  _252
REMARK  102  A    between atoms: _252  and  _253
REMARK  103  A    between atoms: _256  and  _258
REMARK  104  A    between atoms: _258  and  _259
REMARK  105  A    between atoms: _258  and  _261
REMARK  106  A    between atoms: _261  and  _262
REMARK  107  A    between atoms: _262  and  _263
REMARK  108  A    between atoms: _263  and  _264
REMARK  109  A    between atoms: _264  and  _265
REMARK  110  A    between atoms: _269  and  _271
REMARK  111  A    between atoms: _271  and  _272
REMARK  112  A    between atoms: _271  and  _274
REMARK  113  A    between atoms: _274  and  _275
REMARK  114  A    between atoms: _281  and  _283
REMARK  115  A    between atoms: _283  and  _284
REMARK  116  A    between atoms: _286  and  _288
REMARK  117  A    between atoms: _288  and  _289
REMARK  118  A    between atoms: _288  and  _291
REMARK  119  A    between atoms: _291  and  _292
REMARK  120  A    between atoms: _295  and  _297
REMARK  121  A    between atoms: _297  and  _298
REMARK  122  A    between atoms: _297  and  _300
REMARK  123  A    between atoms: _300  and  _301
REMARK  124  A    between atoms: _304  and  _306
REMARK  125  A    between atoms: _306  and  _307
REMARK  126  A    between atoms: _306  and  _309
REMARK  127  A    between atoms: _309  and  _310
REMARK  128  A    between atoms: _310  and  _311
REMARK  129  A    between atoms: _313  and  _315
REMARK  130  A    between atoms: _315  and  _316
REMARK  131  A    between atoms: _319  and  _321
REMARK  132  A    between atoms: _321  and  _322
REMARK  133  A    between atoms: _321  and  _324
REMARK  134  A    between atoms: _324  and  _325
REMARK  135  A    between atoms: _328  and  _330
REMARK  136  A    between atoms: _330  and  _331
REMARK  137  A    between atoms: _330  and  _333
REMARK  138  A    between atoms: _333  and  _334
REMARK  139  A    between atoms: _336  and  _338
REMARK  140  A    between atoms: _338  and  _339
REMARK  141  A    between atoms: _338  and  _341
REMARK  142  A    between atoms: _344  and  _346
REMARK  143  A    between atoms: _346  and  _347
REMARK  144  A    between atoms: _346  and  _349
REMARK  145  A    between atoms: _349  and  _350
REMARK  146  A    between atoms: _350  and  _351
REMARK  147  A    between atoms: _351  and  _352
REMARK  148  A    between atoms: _361  and  _363
REMARK  149  A    between atoms: _363  and  _364
REMARK  150  A    between atoms: _363  and  _366
REMARK  151  A    between atoms: _366  and  _367
REMARK  152  A    between atoms: _367  and  _368
REMARK  153  A    between atoms: _368  and  _369
REMARK  154  A    between atoms: _378  and  _380
REMARK  155  A    between atoms: _380  and  _381
REMARK  156  A    between atoms: _380  and  _383
REMARK  157  A    between atoms: _383  and  _384
REMARK  158  A    between atoms: _389  and  _390
REMARK  159  A    between atoms: _392  and  _394
REMARK  160  A    between atoms: _394  and  _395
REMARK  161  A    between atoms: _394  and  _397
REMARK  162  A    between atoms: _397  and  _398
REMARK  163  A    between atoms: _398  and  _399
REMARK  164  A    between atoms: _404  and  _406
REMARK  165  A    between atoms: _406  and  _407
REMARK  166  A    between atoms: _406  and  _409
REMARK  167  A    between atoms: _409  and  _410
REMARK  168  A    between atoms: _413  and  _415
REMARK  169  A    between atoms: _415  and  _416
REMARK  170  A    between atoms: _415  and  _418
REMARK  171  A    between atoms: _421  and  _423
REMARK  172  A    between atoms: _423  and  _424
REMARK  173  A    between atoms: _423  and  _426
REMARK  174  A    between atoms: _426  and  _427
REMARK  175  A    between atoms: _430  and  _432
REMARK  176  A    between atoms: _432  and  _433
REMARK  177  A    between atoms: _432  and  _435
REMARK  178  A    between atoms: _435  and  _436
REMARK  179  A    between atoms: _439  and  _441
REMARK  180  A    between atoms: _441  and  _442
REMARK  181  A    between atoms: _444  and  _446
REMARK  182  A    between atoms: _446  and  _447
REMARK  183  A    between atoms: _446  and  _449
REMARK  184  A    between atoms: _449  and  _450
REMARK  185  A    between atoms: _453  and  _455
REMARK  186  A    between atoms: _455  and  _456
REMARK  187  A    between atoms: _455  and  _458
REMARK  188  A    between atoms: _458  and  _459
REMARK  189  A    between atoms: _461  and  _463
REMARK  190  A    between atoms: _463  and  _464
REMARK  191  A    between atoms: _463  and  _466
REMARK  192  A    between atoms: _466  and  _467
REMARK  193  A    between atoms: _470  and  _472
REMARK  194  A    between atoms: _472  and  _473
REMARK  195  A    between atoms: _472  and  _475
REMARK  196  A    between atoms: _475  and  _476
REMARK  197  A    between atoms: _476  and  _477
REMARK  198  A    between atoms: _479  and  _481
REMARK  199  A    between atoms: _481  and  _482
REMARK  200  A    between atoms: _481  and  _484
REMARK  201  A    between atoms: _487  and  _489
REMARK  202  A    between atoms: _489  and  _490
REMARK  203  A    between atoms: _489  and  _492
REMARK  204  A    between atoms: _492  and  _493
REMARK  205  A    between atoms: _496  and  _498
REMARK  206  A    between atoms: _498  and  _499
REMARK  207  A    between atoms: _498  and  _501
REMARK  208  A    between atoms: _501  and  _502
REMARK  209  A    between atoms: _502  and  _503
REMARK  210  A    between atoms: _508  and  _510
REMARK  211  A    between atoms: _510  and  _511
REMARK  212  A    between atoms: _510  and  _513
REMARK  213  A    between atoms: _513  and  _514
REMARK  214  A    between atoms: _514  and  _515
REMARK  215  A    between atoms: _518  and  _520
REMARK  216  A    between atoms: _520  and  _521
REMARK  217  A    between atoms: _520  and  _523
REMARK  218  A    between atoms: _523  and  _524
REMARK  219  A    between atoms: _527  and  _529
REMARK  220  A    between atoms: _529  and  _530
REMARK  221  A    between atoms: _529  and  _532
REMARK  222  A    between atoms: _535  and  _537
REMARK  223  A    between atoms: _537  and  _538
REMARK  224  A    between atoms: _537  and  _540
REMARK  225  A    between atoms: _540  and  _541
REMARK  226  A    between atoms: _544  and  _546
REMARK  227  A    between atoms: _546  and  _547
REMARK  228  A    between atoms: _546  and  _549
REMARK  229  A    between atoms: _549  and  _550
REMARK  230  A    between atoms: _552  and  _554
REMARK  231  A    between atoms: _554  and  _555
REMARK  232  A    between atoms: _554  and  _557
REMARK  233  A    between atoms: _557  and  _558
REMARK  234  A    between atoms: _558  and  _559
REMARK  235  A    between atoms: _561  and  _563
REMARK  236  A    between atoms: _563  and  _564
REMARK  237  A    between atoms: _563  and  _566
REMARK  238  A    between atoms: _566  and  _567
REMARK  239  A    between atoms: _567  and  _568
REMARK  240  A    between atoms: _570  and  _572
REMARK  241  A    between atoms: _572  and  _573
REMARK  242  A    between atoms: _572  and  _575
REMARK  243  A    between atoms: _575  and  _576
REMARK  244  A    between atoms: _579  and  _581
REMARK  245  A    between atoms: _581  and  _582
REMARK  246  A    between atoms: _581  and  _584
REMARK  247  A    between atoms: _584  and  _585
REMARK  248  A    between atoms: _589  and  _590
REMARK  249  A    between atoms: _595  and  _597
REMARK  250  A    between atoms: _597  and  _598
REMARK  251  A    between atoms: _597  and  _600
REMARK  252  A    between atoms: _600  and  _601
REMARK  253  A    between atoms: _603  and  _605
REMARK  254  A    between atoms: _605  and  _606
REMARK  255  A    between atoms: _608  and  _610
REMARK  256  A    between atoms: _610  and  _611
REMARK  257  A    between atoms: _610  and  _613
REMARK  258  A    between atoms: _613  and  _614
REMARK  259  A    between atoms: _617  and  _619
REMARK  260  A    between atoms: _619  and  _620
REMARK  261  A    between atoms: _619  and  _622
REMARK  262  A    between atoms: _622  and  _623
REMARK  263  A    between atoms: _626  and  _628
REMARK  264  A    between atoms: _628  and  _629
REMARK  265  A    between atoms: _631  and  _633
REMARK  266  A    between atoms: _633  and  _634
REMARK  267  A    between atoms: _633  and  _636
REMARK  268  A    between atoms: _636  and  _637
REMARK                            x       y       z     vdW  Elec       q    Type
REMARK                         _______ _______ _______ _____ _____    ______ ____
ROOT
ATOM      1  C   ALA A   3      22.025  84.349   9.031  0.00  0.00    +0.241 C 
ATOM      2  N   GLN A   4      21.116  83.422   9.354  0.00  0.00    -0.297 N 
ATOM      3  H   GLN A   4      21.365  82.414   9.295  0.00  0.00    +0.150 HD
ATOM      4  O   ALA A   3      21.698  85.527   9.167  0.00  0.00    -0.273 OA
ENDROOT
BRANCH   1   5
ATOM      5  CA  ALA A   3      23.408  84.009   8.483  0.00  0.00    +0.149 C 
ATOM      6  CB  ALA A   3      23.337  84.153   6.970  0.00  0.00    +0.031 C 
BRANCH   5   9
ATOM      7  C   ASP A   2      24.574  82.393   9.902  0.00  0.00    +0.241 C 
ATOM      8  O   ASP A   2      25.024  83.303  10.591  0.00  0.00    -0.273 OA
ATOM      9  N   ALA A   3      23.784  82.665   8.866  0.00  0.00    -0.297 N 
ATOM     10  H   ALA A   3      23.418  81.871   8.303  0.00  0.00    +0.150 HD
BRANCH   7  11
ATOM     11  CA  ASP A   2      24.843  80.921  10.254  0.00  0.00    +0.160 C 
BRANCH  11  13
ATOM     12  C   MET A   1      24.445  79.956   8.042  0.00  0.00    +0.238 C 
ATOM     13  N   ASP A   2      24.216  79.973   9.348  0.00  0.00    -0.297 N 
ATOM     14  H   ASP A   2      23.555  79.274   9.743  0.00  0.00    +0.150 HD
ATOM     15  O   MET A   1      25.220  80.760   7.522  0.00  0.00    -0.274 OA
BRANCH  12  16
ATOM     16  CA  MET A   1      23.635  78.985   7.205  0.00  0.00    +0.146 C 
BRANCH  16  17
ATOM     17  N   MET A   1      22.322  78.672   7.756  0.00  0.00    -0.238 NA
ATOM     18  H   MET A   1      22.063  77.668   7.838  0.00  0.00    +0.142 HD
ENDBRANCH  16  17
BRANCH  16  19
ATOM     19  CB  MET A   1      23.491  79.586   5.812  0.00  0.00    +0.038 C 
BRANCH  19  20
ATOM     20  CG  MET A   1      22.649  78.773   4.869  0.00  0.00    +0.060 C 
BRANCH  20  21
ATOM     21  SD  MET A   1      23.629  77.710   3.801  0.00  0.00    -0.139 S 
ATOM     22  CE  MET A   1      24.264  76.432   4.858  0.00  0.00    +0.069 C 
ENDBRANCH  20  21
ENDBRANCH  19  20
ENDBRANCH  16  19
ENDBRANCH  12  16
ENDBRANCH  11  13
BRANCH  11  23
ATOM     23  CB  ASP A   2      26.349  80.641  10.298  0.00  0.00    +0.143 C 
BRANCH  23  24
ATOM     24  CG  ASP A   2      26.685  79.217  10.726  0.00  0.00    +0.367 C 
ATOM     25  OD2 ASP A   2      25.999  78.614  11.546  0.00  0.00    -0.246 OA
ATOM     26  OD1 ASP A   2      27.668  78.692  10.221  0.00  0.00    -0.246 OA
ENDBRANCH  23  24
ENDBRANCH  11  23
ENDBRANCH   7  11
ENDBRANCH   5   9
ENDBRANCH   1   5
BRANCH   2  27
ATOM     27  CA  GLN A   4      19.774  83.812   9.790  0.00  0.00    +0.149 C 
BRANCH  27  28
ATOM     28  C   GLN A   4      19.322  83.071  11.009  0.00  0.00    +0.241 C 
ATOM     29  N   TYR A   5      19.106  83.681  12.155  0.00  0.00    -0.298 N 
ATOM     30  H   TYR A   5      19.250  84.708  12.236  0.00  0.00    +0.150 HD
ATOM     31  O   GLN A   4      19.196  81.862  10.918  0.00  0.00    -0.273 OA
BRANCH  29  32
ATOM     32  CA  TYR A   5      18.666  82.915  13.303  0.00  0.00    +0.141 C 
BRANCH  32  33
ATOM     33  C   TYR A   5      17.288  83.433  13.656  0.00  0.00    +0.227 C 
ATOM     34  O   TYR A   5      17.146  84.610  13.980  0.00  0.00    -0.286 OA
ENDBRANCH  32  33
BRANCH  32  35
ATOM     35  CB  TYR A   5      19.609  83.105  14.476  0.00  0.00    +0.054 C 
BRANCH  35  36
ATOM     36  CG  TYR A   5      20.974  82.467  14.238  0.00  0.00    -0.020 A 
ATOM     37  CD2 TYR A   5      21.348  81.337  14.953  0.00  0.00    -0.001 A 
ATOM     38  CE2 TYR A   5      22.597  80.785  14.789  0.00  0.00    +0.036 A 
ATOM     39  CZ  TYR A   5      23.448  81.367  13.891  0.00  0.00    +0.134 A 
ATOM     40  CE1 TYR A   5      23.097  82.475  13.168  0.00  0.00    +0.036 A 
ATOM     41  CD1 TYR A   5      21.856  83.019  13.339  0.00  0.00    -0.001 A 
BRANCH  39  42
ATOM     42  OH  TYR A   5      24.714  80.866  13.708  0.00  0.00    -0.506 OA
ATOM     43  HH  TYR A   5      24.655  79.926  13.403  0.00  0.00    +0.292 HD
ENDBRANCH  39  42
ENDBRANCH  35  36
ENDBRANCH  32  35
ENDBRANCH  29  32
ENDBRANCH  27  28
BRANCH  27  44
ATOM     44  CB  GLN A   4      18.793  83.554   8.700  0.00  0.00    +0.039 C 
BRANCH  44  45
ATOM     45  CG  GLN A   4      18.751  84.693   7.761  0.00  0.00    +0.087 C 
BRANCH  45  46
ATOM     46  CD  GLN A   4      17.837  84.351   6.618  0.00  0.00    +0.219 C 
ATOM     47  OE1 GLN A   4      16.664  83.995   6.770  0.00  0.00    -0.275 OA
ATOM     48  NE2 GLN A   4      18.367  84.476   5.415  0.00  0.00    -0.329 N 
ATOM     49 HE21 GLN A   4      19.357  84.777   5.312  0.00  0.00    +0.145 HD
ATOM     50 HE22 GLN A   4      17.794  84.273   4.571  0.00  0.00    +0.145 HD
ENDBRANCH  45  46
ENDBRANCH  44  45
ENDBRANCH  27  44
ENDBRANCH   2  27
TORSDOF 21
REMARK  Name = ../refined-set-2016/1lyb/1lyb_pocket.pdb
REMARK  268 active torsions:
REMARK  status: ('A' for Active; 'I' for Inactive)
REMARK    1  A    between atoms: _1  and  _3
REMARK    2  A    between atoms: _3  and  _4
REMARK    3  A    between atoms: _3  and  _6
REMARK    4  A    between atoms: _6  and  _7
REMARK    5  A    between atoms: _7  and  _8
REMARK    6  A    between atoms: _10  and  _12
REMARK    7  A    between atoms: _12  and  _13
REMARK    8  A    between atoms: _12  and  _15
REMARK    9  A    between atoms: _15  and  _16
REMARK   10  A    between atoms: _19  and  _21
REMARK   11  A    between atoms: _21  and  _22
REMARK   12  A    between atoms: _25  and  _27
REMARK   13  A    between atoms: _27  and  _28
REMARK   14  A    between atoms: _27  and  _30
REMARK   15  A    between atoms: _30  and  _31
REMARK   16  A    between atoms: _31  and  _32
REMARK   17  A    between atoms: _37  and  _39
REMARK   18  A    between atoms: _39  and  _40
REMARK   19  A    between atoms: _39  and  _42
REMARK   20  A    between atoms: _42  and  _43
REMARK   21  A    between atoms: _48  and  _49
REMARK   22  A    between atoms: _51  and  _53
REMARK   23  A    between atoms: _53  and  _54
REMARK   24  A    between atoms: _53  and  _56
REMARK   25  A    between atoms: _59  and  _61
REMARK   26  A    between atoms: _61  and  _62
REMARK   27  A    between atoms: _61  and  _64
REMARK   28  A    between atoms: _67  and  _69
REMARK   29  A    between atoms: _69  and  _70
REMARK   30  A    between atoms: _69  and  _72
REMARK   31  A    between atoms: _72  and  _73
REMARK   32  A    between atoms: _79  and  _81
REMARK   33  A    between atoms: _81  and  _82
REMARK   34  A    between atoms: _81  and  _84
REMARK   35  A    between atoms: _84  and  _85
REMARK   36  A    between atoms: _88  and  _90
REMARK   37  A    between atoms: _90  and  _91
REMARK   38  A    between atoms: _90  and  _93
REMARK   39  A    between atoms: _93  and  _94
REMARK   40  A    between atoms: _97  and  _99
REMARK   41  A    between atoms: _99  and  _100
REMARK   42  A    between atoms: _102  and  _104
REMARK   43  A    between atoms: _104  and  _105
REMARK   44  A    between atoms: _104  and  _107
REMARK   45  A    between atoms: _107  and  _108
REMARK   46  A    between atoms: _110  and  _112
REMARK   47  A    between atoms: _112  and  _113
REMARK   48  A    between atoms: _112  and  _115
REMARK   49  A    between atoms: _115  and  _116
REMARK   50  A    between atoms: _118  and  _120
REMARK   51  A    between atoms: _120  and  _121
REMARK   52  A    between atoms: _120  and  _123
REMARK   53  A    between atoms: _123  and  _124
REMARK   54  A    between atoms: _129  and  _131
REMARK   55  A    between atoms: _131  and  _132
REMARK   56  A    between atoms: _131  and  _134
REMARK   57  A    between atoms: _134  and  _135
REMARK   58  A    between atoms: _145  and  _147
REMARK   59  A    between atoms: _147  and  _148
REMARK   60  A    between atoms: _147  and  _150
REMARK   61  A    between atoms: _150  and  _151
REMARK   62  A    between atoms: _154  and  _156
REMARK   63  A    between atoms: _156  and  _157
REMARK   64  A    between atoms: _156  and  _159
REMARK   65  A    between atoms: _159  and  _160
REMARK   66  A    between atoms: _163  and  _165
REMARK   67  A    between atoms: _165  and  _166
REMARK   68  A    between atoms: _165  and  _168
REMARK   69  A    between atoms: _168  and  _169
REMARK   70  A    between atoms: _174  and  _176
REMARK   71  A    between atoms: _176  and  _177
REMARK   72  A    between atoms: _176  and  _179
REMARK   73  A    between atoms: _179  and  _180
REMARK   74  A    between atoms: _185  and  _186
REMARK   75  A    between atoms: _188  and  _190
REMARK   76  A    between atoms: _190  and  _191
REMARK   77  A    between atoms: _193  and  _195
REMARK   78  A    between atoms: _195  and  _196
REMARK   79  A    between atoms: _195  and  _198
REMARK   80  A    between atoms: _198  and  _199
REMARK   81  A    between atoms: _201  and  _203
REMARK   82  A    between atoms: _203  and  _204
REMARK   83  A    between atoms: _206  and  _208
REMARK   84  A    between atoms: _208  and  _209
REMARK   85  A    between atoms: _208  and  _211
REMARK   86  A    between atoms: _211  and  _212
REMARK   87  A    between atoms: _214  and  _216
REMARK   88  A    between atoms: _216  and  _217
REMARK   89  A    between atoms: _216  and  _219
REMARK   90  A    between atoms: _219  and  _220
REMARK   91  A    between atoms: _223  and  _225
REMARK   92  A    between atoms: _225  and  _226
REMARK   93  A    between atoms: _225  and  _228
REMARK   94  A    between atoms: _228  and  _229
REMARK   95  A    between atoms: _232  and  _234
REMARK   96  A    between atoms: _234  and  _235
REMARK   97  A    between atoms: _234  and  _237
REMARK   98  A    between atoms: _237  and  _238
REMARK   99  A    between atoms: _244  and  _246
REMARK  100  A    between atoms: _246  and  _247
REMARK  101  A    between atoms: _250  and  _252
REMARK  102  A    between atoms: _252  and  _253
REMARK  103  A    between atoms: _256  and  _258
REMARK  104  A    between atoms: _258  and  _259
REMARK  105  A    between atoms: _258  and  _261
REMARK  106  A    between atoms: _261  and  _262
REMARK  107  A    between atoms: _262  and  _263
REMARK  108  A    between atoms: _263  and  _264
REMARK  109  A    between atoms: _264  and  _265
REMARK  110  A    between atoms: _269  and  _271
REMARK  111  A    between atoms: _271  and  _272
REMARK  112  A    between atoms: _271  and  _274
REMARK  113  A    between atoms: _274  and  _275
REMARK  114  A    between atoms: _281  and  _283
REMARK  115  A    between atoms: _283  and  _284
REMARK  116  A    between atoms: _286  and  _288
REMARK  117  A    between atoms: _288  and  _289
REMARK  118  A    between atoms: _288  and  _291
REMARK  119  A    between atoms: _291  and  _292
REMARK  120  A    between atoms: _295  and  _297
REMARK  121  A    between atoms: _297  and  _298
REMARK  122  A    between atoms: _297  and  _300
REMARK  123  A    between atoms: _300  and  _301
REMARK  124  A    between atoms: _304  and  _306
REMARK  125  A    between atoms: _306  and  _307
REMARK  126  A    between atoms: _306  and  _309
REMARK  127  A    between atoms: _309  and  _310
REMARK  128  A    between atoms: _310  and  _311
REMARK  129  A    between atoms: _313  and  _315
REMARK  130  A    between atoms: _315  and  _316
REMARK  131  A    between atoms: _319  and  _321
REMARK  132  A    between atoms: _321  and  _322
REMARK  133  A    between atoms: _321  and  _324
REMARK  134  A    between atoms: _324  and  _325
REMARK  135  A    between atoms: _328  and  _330
REMARK  136  A    between atoms: _330  and  _331
REMARK  137  A    between atoms: _330  and  _333
REMARK  138  A    between atoms: _333  and  _334
REMARK  139  A    between atoms: _336  and  _338
REMARK  140  A    between atoms: _338  and  _339
REMARK  141  A    between atoms: _338  and  _341
REMARK  142  A    between atoms: _344  and  _346
REMARK  143  A    between atoms: _346  and  _347
REMARK  144  A    between atoms: _346  and  _349
REMARK  145  A    between atoms: _349  and  _350
REMARK  146  A    between atoms: _350  and  _351
REMARK  147  A    between atoms: _351  and  _352
REMARK  148  A    between atoms: _361  and  _363
REMARK  149  A    between atoms: _363  and  _364
REMARK  150  A    between atoms: _363  and  _366
REMARK  151  A    between atoms: _366  and  _367
REMARK  152  A    between atoms: _367  and  _368
REMARK  153  A    between atoms: _368  and  _369
REMARK  154  A    between atoms: _378  and  _380
REMARK  155  A    between atoms: _380  and  _381
REMARK  156  A    between atoms: _380  and  _383
REMARK  157  A    between atoms: _383  and  _384
REMARK  158  A    between atoms: _389  and  _390
REMARK  159  A    between atoms: _392  and  _394
REMARK  160  A    between atoms: _394  and  _395
REMARK  161  A    between atoms: _394  and  _397
REMARK  162  A    between atoms: _397  and  _398
REMARK  163  A    between atoms: _398  and  _399
REMARK  164  A    between atoms: _404  and  _406
REMARK  165  A    between atoms: _406  and  _407
REMARK  166  A    between atoms: _406  and  _409
REMARK  167  A    between atoms: _409  and  _410
REMARK  168  A    between atoms: _413  and  _415
REMARK  169  A    between atoms: _415  and  _416
REMARK  170  A    between atoms: _415  and  _418
REMARK  171  A    between atoms: _421  and  _423
REMARK  172  A    between atoms: _423  and  _424
REMARK  173  A    between atoms: _423  and  _426
REMARK  174  A    between atoms: _426  and  _427
REMARK  175  A    between atoms: _430  and  _432
REMARK  176  A    between atoms: _432  and  _433
REMARK  177  A    between atoms: _432  and  _435
REMARK  178  A    between atoms: _435  and  _436
REMARK  179  A    between atoms: _439  and  _441
REMARK  180  A    between atoms: _441  and  _442
REMARK  181  A    between atoms: _444  and  _446
REMARK  182  A    between atoms: _446  and  _447
REMARK  183  A    between atoms: _446  and  _449
REMARK  184  A    between atoms: _449  and  _450
REMARK  185  A    between atoms: _453  and  _455
REMARK  186  A    between atoms: _455  and  _456
REMARK  187  A    between atoms: _455  and  _458
REMARK  188  A    between atoms: _458  and  _459
REMARK  189  A    between atoms: _461  and  _463
REMARK  190  A    between atoms: _463  and  _464
REMARK  191  A    between atoms: _463  and  _466
REMARK  192  A    between atoms: _466  and  _467
REMARK  193  A    between atoms: _470  and  _472
REMARK  194  A    between atoms: _472  and  _473
REMARK  195  A    between atoms: _472  and  _475
REMARK  196  A    between atoms: _475  and  _476
REMARK  197  A    between atoms: _476  and  _477
REMARK  198  A    between atoms: _479  and  _481
REMARK  199  A    between atoms: _481  and  _482
REMARK  200  A    between atoms: _481  and  _484
REMARK  201  A    between atoms: _487  and  _489
REMARK  202  A    between atoms: _489  and  _490
REMARK  203  A    between atoms: _489  and  _492
REMARK  204  A    between atoms: _492  and  _493
REMARK  205  A    between atoms: _496  and  _498
REMARK  206  A    between atoms: _498  and  _499
REMARK  207  A    between atoms: _498  and  _501
REMARK  208  A    between atoms: _501  and  _502
REMARK  209  A    between atoms: _502  and  _503
REMARK  210  A    between atoms: _508  and  _510
REMARK  211  A    between atoms: _510  and  _511
REMARK  212  A    between atoms: _510  and  _513
REMARK  213  A    between atoms: _513  and  _514
REMARK  214  A    between atoms: _514  and  _515
REMARK  215  A    between atoms: _518  and  _520
REMARK  216  A    between atoms: _520  and  _521
REMARK  217  A    between atoms: _520  and  _523
REMARK  218  A    between atoms: _523  and  _524
REMARK  219  A    between atoms: _527  and  _529
REMARK  220  A    between atoms: _529  and  _530
REMARK  221  A    between atoms: _529  and  _532
REMARK  222  A    between atoms: _535  and  _537
REMARK  223  A    between atoms: _537  and  _538
REMARK  224  A    between atoms: _537  and  _540
REMARK  225  A    between atoms: _540  and  _541
REMARK  226  A    between atoms: _544  and  _546
REMARK  227  A    between atoms: _546  and  _547
REMARK  228  A    between atoms: _546  and  _549
REMARK  229  A    between atoms: _549  and  _550
REMARK  230  A    between atoms: _552  and  _554
REMARK  231  A    between atoms: _554  and  _555
REMARK  232  A    between atoms: _554  and  _557
REMARK  233  A    between atoms: _557  and  _558
REMARK  234  A    between atoms: _558  and  _559
REMARK  235  A    between atoms: _561  and  _563
REMARK  236  A    between atoms: _563  and  _564
REMARK  237  A    between atoms: _563  and  _566
REMARK  238  A    between atoms: _566  and  _567
REMARK  239  A    between atoms: _567  and  _568
REMARK  240  A    between atoms: _570  and  _572
REMARK  241  A    between atoms: _572  and  _573
REMARK  242  A    between atoms: _572  and  _575
REMARK  243  A    between atoms: _575  and  _576
REMARK  244  A    between atoms: _579  and  _581
REMARK  245  A    between atoms: _581  and  _582
REMARK  246  A    between atoms: _581  and  _584
REMARK  247  A    between atoms: _584  and  _585
REMARK  248  A    between atoms: _589  and  _590
REMARK  249  A    between atoms: _595  and  _597
REMARK  250  A    between atoms: _597  and  _598
REMARK  251  A    between atoms: _597  and  _600
REMARK  252  A    between atoms: _600  and  _601
REMARK  253  A    between atoms: _603  and  _605
REMARK  254  A    between atoms: _605  and  _606
REMARK  255  A    between atoms: _608  and  _610
REMARK  256  A    between atoms: _610  and  _611
REMARK  257  A    between atoms: _610  and  _613
REMARK  258  A    between atoms: _613  and  _614
REMARK  259  A    between atoms: _617  and  _619
REMARK  260  A    between atoms: _619  and  _620
REMARK  261  A    between atoms: _619  and  _622
REMARK  262  A    between atoms: _622  and  _623
REMARK  263  A    between atoms: _626  and  _628
REMARK  264  A    between atoms: _628  and  _629
REMARK  265  A    between atoms: _631  and  _633
REMARK  266  A    between atoms: _633  and  _634
REMARK  267  A    between atoms: _633  and  _636
REMARK  268  A    between atoms: _636  and  _637
REMARK                            x       y       z     vdW  Elec       q    Type
REMARK                         _______ _______ _______ _____ _____    ______ ____
ROOT
ATOM      1  C   ASP A   4      17.094  92.562  17.490  0.00  0.00    +0.241 C 
ATOM      2  N   THR A   5      18.271  92.583  18.092  0.00  0.00    -0.295 N 
ATOM      3  H   THR A   5      18.958  91.821  17.922  0.00  0.00    +0.150 HD
ATOM      4  O   ASP A   4      16.327  93.498  17.662  0.00  0.00    -0.273 OA
ENDROOT
BRANCH   2   5
ATOM      5  CA  THR A   5      18.596  93.662  18.981  0.00  0.00    +0.176 C 
BRANCH   5   6
ATOM      6  C   THR A   5      19.049  94.921  18.237  0.00  0.00    +0.243 C 
ATOM      7  O   THR A   5      19.524  95.870  18.854  0.00  0.00    -0.273 OA
ATOM      8  N   GLY A   6      18.878  95.067  16.927  0.00  0.00    -0.295 N 
ATOM      9  H   GLY A   6      18.424  94.301  16.389  0.00  0.00    +0.150 HD
BRANCH   8  10
ATOM     10  CA  GLY A   6      19.303  96.256  16.228  0.00  0.00    +0.176 C 
BRANCH  10  11
ATOM     11  C   GLY A   6      18.136  97.131  15.840  0.00  0.00    +0.243 C 
ATOM     12  N   SER A   7      16.919  96.861  16.274  0.00  0.00    -0.295 N 
ATOM     13  H   SER A   7      16.787  96.026  16.879  0.00  0.00    +0.150 HD
ATOM     14  O   GLY A   6      18.327  98.063  15.069  0.00  0.00    -0.273 OA
BRANCH  12  15
ATOM     15  CA  SER A   7      15.751  97.670  15.951  0.00  0.00    +0.178 C 
BRANCH  15  16
ATOM     16  C   SER A   7      14.751  97.407  17.060  0.00  0.00    +0.243 C 
ATOM     17  O   SER A   7      15.040  96.608  17.961  0.00  0.00    -0.273 OA
ATOM     18  N   SER A   8      13.566  97.985  17.046  0.00  0.00    -0.295 N 
ATOM     19  H   SER A   8      13.283  98.585  16.245  0.00  0.00    +0.150 HD
BRANCH  18  20
ATOM     20  CA  SER A   8      12.671  97.778  18.148  0.00  0.00    +0.178 C 
BRANCH  20  21
ATOM     21  C   SER A   8      11.242  97.548  17.719  0.00  0.00    +0.243 C 
ATOM     22  O   SER A   8      10.334  97.507  18.539  0.00  0.00    -0.273 OA
ATOM     23  N   ASN A   9      10.947  97.326  16.449  0.00  0.00    -0.298 N 
ATOM     24  H   ASN A   9      11.706  97.290  15.739  0.00  0.00    +0.150 HD
BRANCH  23  25
ATOM     25  CA  ASN A   9       9.560  97.132  16.043  0.00  0.00    +0.146 C 
BRANCH  25  26
ATOM     26  C   ASN A   9       9.298  95.693  15.694  0.00  0.00    +0.227 C 
ATOM     27  O   ASN A   9      10.183  94.994  15.218  0.00  0.00    -0.286 OA
ENDBRANCH  25  26
BRANCH  25  28
ATOM     28  CB  ASN A   9       9.209  97.983  14.839  0.00  0.00    +0.112 C 
BRANCH  28  29
ATOM     29  CG  ASN A   9       9.290  99.435  15.254  0.00  0.00    +0.222 C 
ATOM     30  ND2 ASN A   9       8.236 100.060  15.757  0.00  0.00    -0.329 N 
ATOM     31 HD21 ASN A   9       8.321 101.044  16.082  0.00  0.00    +0.145 HD
ATOM     32 HD22 ASN A   9       7.323  99.566  15.827  0.00  0.00    +0.145 HD
ATOM     33  OD1 ASN A   9      10.362 100.030  15.177  0.00  0.00    -0.275 OA
ENDBRANCH  28  29
ENDBRANCH  25  28
ENDBRANCH  23  25
ENDBRANCH  20  21
BRANCH  20  34
ATOM     34  CB  SER A   8      12.817  98.983  19.058  0.00  0.00    +0.166 C 
BRANCH  34  35
ATOM     35  OG  SER A   8      14.192  99.202  19.384  0.00  0.00    -0.380 OA
ATOM     36  H   SER A   8      14.268  99.991  19.977  0.00  0.00    +0.211 HD
ENDBRANCH  34  35
ENDBRANCH  20  34
ENDBRANCH  18  20
ENDBRANCH  15  16
BRANCH  15  37
ATOM     37  CB  SER A   7      15.144  97.247  14.652  0.00  0.00    +0.166 C 
BRANCH  37  38
ATOM     38  OG  SER A   7      14.857  95.858  14.801  0.00  0.00    -0.380 OA
ATOM     39  H   SER A   7      15.696  95.367  14.986  0.00  0.00    +0.211 HD
ENDBRANCH  37  38
ENDBRANCH  15  37
ENDBRANCH  12  15
ENDBRANCH  10  11
ENDBRANCH   8  10
ENDBRANCH   5   6
BRANCH   5  40
ATOM     40  CB  THR A   5      19.646  93.134  20.001  0.00  0.00    +0.137 C 
ATOM     41  CG2 THR A   5      18.991  92.085  20.891  0.00  0.00    +0.034 C 
BRANCH  40  42
ATOM     42  OG1 THR A   5      20.766  92.547  19.346  0.00  0.00    -0.382 OA
ATOM     43  HG1 THR A   5      20.461  91.787  18.790  0.00  0.00    +0.210 HD
ENDBRANCH  40  42
ENDBRANCH   5  40
ENDBRANCH   2   5
BRANCH   1  44
ATOM     44  CA  ASP A   4      16.776  91.463  16.507  0.00  0.00    +0.160 C 
BRANCH  44  47
ATOM     45  C   PHE A   3      16.081  89.371  17.507  0.00  0.00    +0.241 C 
ATOM     46  O   PHE A   3      17.201  89.008  17.851  0.00  0.00    -0.273 OA
ATOM     47  N   ASP A   4      15.791  90.527  16.947  0.00  0.00    -0.297 N 
ATOM     48  H   ASP A   4      14.789  90.772  16.818  0.00  0.00    +0.150 HD
BRANCH  45  49
ATOM     49  CA  PHE A   3      14.840  88.532  17.683  0.00  0.00    +0.153 C 
BRANCH  49  51
ATOM     50  C   VAL A   2      14.189  88.216  15.332  0.00  0.00    +0.241 C 
ATOM     51  N   PHE A   3      14.760  87.799  16.444  0.00  0.00    -0.297 N 
ATOM     52  H   PHE A   3      15.193  86.854  16.426  0.00  0.00    +0.150 HD
ATOM     53  O   VAL A   2      13.490  89.235  15.276  0.00  0.00    -0.273 OA
BRANCH  50  54
ATOM     54  CA  VAL A   2      14.370  87.276  14.144  0.00  0.00    +0.148 C 
BRANCH  54  57
ATOM     55  C   VAL A   1      12.243  86.276  13.777  0.00  0.00    +0.238 C 
ATOM     56  O   VAL A   1      12.622  85.235  14.340  0.00  0.00    -0.274 OA
ATOM     57  N   VAL A   2      13.081  87.288  13.483  0.00  0.00    -0.297 N 
ATOM     58  H   VAL A   2      12.816  88.040  12.815  0.00  0.00    +0.150 HD
BRANCH  55  59
ATOM     59  CA  VAL A   1      10.794  86.360  13.394  0.00  0.00    +0.145 C 
BRANCH  59  60
ATOM     60  CB  VAL A   1      10.173  87.283  14.451  0.00  0.00    +0.025 C 
ATOM     61  CG2 VAL A   1      10.125  86.577  15.798  0.00  0.00    +0.002 C 
ATOM     62  CG1 VAL A   1       8.788  87.724  14.003  0.00  0.00    +0.002 C 
ENDBRANCH  59  60
BRANCH  59  63
ATOM     63  N   VAL A   1      10.266  85.008  13.365  0.00  0.00    -0.238 NA
ATOM     64  H   VAL A   1      10.606  84.328  14.075  0.00  0.00    +0.142 HD
ENDBRANCH  59  63
ENDBRANCH  55  59
ENDBRANCH  54  57
BRANCH  54  65
ATOM     65  CB  VAL A   2      15.618  87.765  13.282  0.00  0.00    +0.027 C 
ATOM     66  CG2 VAL A   2      15.594  89.209  12.925  0.00  0.00    +0.002 C 
ATOM     67  CG1 VAL A   2      15.627  87.043  11.972  0.00  0.00    +0.002 C 
ENDBRANCH  54  65
ENDBRANCH  50  54
ENDBRANCH  49  51
BRANCH  49  68
ATOM     68  CB  PHE A   3      15.023  87.581  18.858  0.00  0.00    +0.055 C 
BRANCH  68  69
ATOM     69  CG  PHE A   3      13.750  86.768  19.006  0.00  0.00    -0.020 A 
ATOM     70  CD2 PHE A   3      12.678  87.307  19.665  0.00  0.00    -0.004 A 
ATOM     71  CE2 PHE A   3      11.535  86.581  19.797  0.00  0.00    -0.000 A 
ATOM     72  CZ  PHE A   3      11.458  85.326  19.269  0.00  0.00    -0.000 A 
ATOM     73  CE1 PHE A   3      12.529  84.785  18.607  0.00  0.00    -0.000 A 
ATOM     74  CD1 PHE A   3      13.685  85.511  18.475  0.00  0.00    -0.004 A 
ENDBRANCH  68  69
ENDBRANCH  49  68
ENDBRANCH  45  49
ENDBRANCH  44  47
BRANCH  44  75
ATOM     75  CB  ASP A   4      16.256  92.019  15.215  0.00  0.00    +0.143 C 
BRANCH  75  76
ATOM     76  CG  ASP A   4      17.109  93.104  14.576  0.00  0.00    +0.367 C 
ATOM     77  OD2 ASP A   4      18.329  93.116  14.733  0.00  0.00    -0.246 OA
ATOM     78  OD1 ASP A   4      16.535  93.948  13.888  0.00  0.00    -0.246 OA
ENDBRANCH  75  76
ENDBRANCH  44  75
ENDBRANCH   1  44
TORSDOF 32
REMARK  Name = ../refined-set-2016/1lyb/1lyb_pocket.pdb
REMARK  268 active torsions:
REMARK  status: ('A' for Active; 'I' for Inactive)
REMARK    1  A    between atoms: _1  and  _3
REMARK    2  A    between atoms: _3  and  _4
REMARK    3  A    between atoms: _3  and  _6
REMARK    4  A    between atoms: _6  and  _7
REMARK    5  A    between atoms: _7  and  _8
REMARK    6  A    between atoms: _10  and  _12
REMARK    7  A    between atoms: _12  and  _13
REMARK    8  A    between atoms: _12  and  _15
REMARK    9  A    between atoms: _15  and  _16
REMARK   10  A    between atoms: _19  and  _21
REMARK   11  A    between atoms: _21  and  _22
REMARK   12  A    between atoms: _25  and  _27
REMARK   13  A    between atoms: _27  and  _28
REMARK   14  A    between atoms: _27  and  _30
REMARK   15  A    between atoms: _30  and  _31
REMARK   16  A    between atoms: _31  and  _32
REMARK   17  A    between atoms: _37  and  _39
REMARK   18  A    between atoms: _39  and  _40
REMARK   19  A    between atoms: _39  and  _42
REMARK   20  A    between atoms: _42  and  _43
REMARK   21  A    between atoms: _48  and  _49
REMARK   22  A    between atoms: _51  and  _53
REMARK   23  A    between atoms: _53  and  _54
REMARK   24  A    between atoms: _53  and  _56
REMARK   25  A    between atoms: _59  and  _61
REMARK   26  A    between atoms: _61  and  _62
REMARK   27  A    between atoms: _61  and  _64
REMARK   28  A    between atoms: _67  and  _69
REMARK   29  A    between atoms: _69  and  _70
REMARK   30  A    between atoms: _69  and  _72
REMARK   31  A    between atoms: _72  and  _73
REMARK   32  A    between atoms: _79  and  _81
REMARK   33  A    between atoms: _81  and  _82
REMARK   34  A    between atoms: _81  and  _84
REMARK   35  A    between atoms: _84  and  _85
REMARK   36  A    between atoms: _88  and  _90
REMARK   37  A    between atoms: _90  and  _91
REMARK   38  A    between atoms: _90  and  _93
REMARK   39  A    between atoms: _93  and  _94
REMARK   40  A    between atoms: _97  and  _99
REMARK   41  A    between atoms: _99  and  _100
REMARK   42  A    between atoms: _102  and  _104
REMARK   43  A    between atoms: _104  and  _105
REMARK   44  A    between atoms: _104  and  _107
REMARK   45  A    between atoms: _107  and  _108
REMARK   46  A    between atoms: _110  and  _112
REMARK   47  A    between atoms: _112  and  _113
REMARK   48  A    between atoms: _112  and  _115
REMARK   49  A    between atoms: _115  and  _116
REMARK   50  A    between atoms: _118  and  _120
REMARK   51  A    between atoms: _120  and  _121
REMARK   52  A    between atoms: _120  and  _123
REMARK   53  A    between atoms: _123  and  _124
REMARK   54  A    between atoms: _129  and  _131
REMARK   55  A    between atoms: _131  and  _132
REMARK   56  A    between atoms: _131  and  _134
REMARK   57  A    between atoms: _134  and  _135
REMARK   58  A    between atoms: _145  and  _147
REMARK   59  A    between atoms: _147  and  _148
REMARK   60  A    between atoms: _147  and  _150
REMARK   61  A    between atoms: _150  and  _151
REMARK   62  A    between atoms: _154  and  _156
REMARK   63  A    between atoms: _156  and  _157
REMARK   64  A    between atoms: _156  and  _159
REMARK   65  A    between atoms: _159  and  _160
REMARK   66  A    between atoms: _163  and  _165
REMARK   67  A    between atoms: _165  and  _166
REMARK   68  A    between atoms: _165  and  _168
REMARK   69  A    between atoms: _168  and  _169
REMARK   70  A    between atoms: _174  and  _176
REMARK   71  A    between atoms: _176  and  _177
REMARK   72  A    between atoms: _176  and  _179
REMARK   73  A    between atoms: _179  and  _180
REMARK   74  A    between atoms: _185  and  _186
REMARK   75  A    between atoms: _188  and  _190
REMARK   76  A    between atoms: _190  and  _191
REMARK   77  A    between atoms: _193  and  _195
REMARK   78  A    between atoms: _195  and  _196
REMARK   79  A    between atoms: _195  and  _198
REMARK   80  A    between atoms: _198  and  _199
REMARK   81  A    between atoms: _201  and  _203
REMARK   82  A    between atoms: _203  and  _204
REMARK   83  A    between atoms: _206  and  _208
REMARK   84  A    between atoms: _208  and  _209
REMARK   85  A    between atoms: _208  and  _211
REMARK   86  A    between atoms: _211  and  _212
REMARK   87  A    between atoms: _214  and  _216
REMARK   88  A    between atoms: _216  and  _217
REMARK   89  A    between atoms: _216  and  _219
REMARK   90  A    between atoms: _219  and  _220
REMARK   91  A    between atoms: _223  and  _225
REMARK   92  A    between atoms: _225  and  _226
REMARK   93  A    between atoms: _225  and  _228
REMARK   94  A    between atoms: _228  and  _229
REMARK   95  A    between atoms: _232  and  _234
REMARK   96  A    between atoms: _234  and  _235
REMARK   97  A    between atoms: _234  and  _237
REMARK   98  A    between atoms: _237  and  _238
REMARK   99  A    between atoms: _244  and  _246
REMARK  100  A    between atoms: _246  and  _247
REMARK  101  A    between atoms: _250  and  _252
REMARK  102  A    between atoms: _252  and  _253
REMARK  103  A    between atoms: _256  and  _258
REMARK  104  A    between atoms: _258  and  _259
REMARK  105  A    between atoms: _258  and  _261
REMARK  106  A    between atoms: _261  and  _262
REMARK  107  A    between atoms: _262  and  _263
REMARK  108  A    between atoms: _263  and  _264
REMARK  109  A    between atoms: _264  and  _265
REMARK  110  A    between atoms: _269  and  _271
REMARK  111  A    between atoms: _271  and  _272
REMARK  112  A    between atoms: _271  and  _274
REMARK  113  A    between atoms: _274  and  _275
REMARK  114  A    between atoms: _281  and  _283
REMARK  115  A    between atoms: _283  and  _284
REMARK  116  A    between atoms: _286  and  _288
REMARK  117  A    between atoms: _288  and  _289
REMARK  118  A    between atoms: _288  and  _291
REMARK  119  A    between atoms: _291  and  _292
REMARK  120  A    between atoms: _295  and  _297
REMARK  121  A    between atoms: _297  and  _298
REMARK  122  A    between atoms: _297  and  _300
REMARK  123  A    between atoms: _300  and  _301
REMARK  124  A    between atoms: _304  and  _306
REMARK  125  A    between atoms: _306  and  _307
REMARK  126  A    between atoms: _306  and  _309
REMARK  127  A    between atoms: _309  and  _310
REMARK  128  A    between atoms: _310  and  _311
REMARK  129  A    between atoms: _313  and  _315
REMARK  130  A    between atoms: _315  and  _316
REMARK  131  A    between atoms: _319  and  _321
REMARK  132  A    between atoms: _321  and  _322
REMARK  133  A    between atoms: _321  and  _324
REMARK  134  A    between atoms: _324  and  _325
REMARK  135  A    between atoms: _328  and  _330
REMARK  136  A    between atoms: _330  and  _331
REMARK  137  A    between atoms: _330  and  _333
REMARK  138  A    between atoms: _333  and  _334
REMARK  139  A    between atoms: _336  and  _338
REMARK  140  A    between atoms: _338  and  _339
REMARK  141  A    between atoms: _338  and  _341
REMARK  142  A    between atoms: _344  and  _346
REMARK  143  A    between atoms: _346  and  _347
REMARK  144  A    between atoms: _346  and  _349
REMARK  145  A    between atoms: _349  and  _350
REMARK  146  A    between atoms: _350  and  _351
REMARK  147  A    between atoms: _351  and  _352
REMARK  148  A    between atoms: _361  and  _363
REMARK  149  A    between atoms: _363  and  _364
REMARK  150  A    between atoms: _363  and  _366
REMARK  151  A    between atoms: _366  and  _367
REMARK  152  A    between atoms: _367  and  _368
REMARK  153  A    between atoms: _368  and  _369
REMARK  154  A    between atoms: _378  and  _380
REMARK  155  A    between atoms: _380  and  _381
REMARK  156  A    between atoms: _380  and  _383
REMARK  157  A    between atoms: _383  and  _384
REMARK  158  A    between atoms: _389  and  _390
REMARK  159  A    between atoms: _392  and  _394
REMARK  160  A    between atoms: _394  and  _395
REMARK  161  A    between atoms: _394  and  _397
REMARK  162  A    between atoms: _397  and  _398
REMARK  163  A    between atoms: _398  and  _399
REMARK  164  A    between atoms: _404  and  _406
REMARK  165  A    between atoms: _406  and  _407
REMARK  166  A    between atoms: _406  and  _409
REMARK  167  A    between atoms: _409  and  _410
REMARK  168  A    between atoms: _413  and  _415
REMARK  169  A    between atoms: _415  and  _416
REMARK  170  A    between atoms: _415  and  _418
REMARK  171  A    between atoms: _421  and  _423
REMARK  172  A    between atoms: _423  and  _424
REMARK  173  A    between atoms: _423  and  _426
REMARK  174  A    between atoms: _426  and  _427
REMARK  175  A    between atoms: _430  and  _432
REMARK  176  A    between atoms: _432  and  _433
REMARK  177  A    between atoms: _432  and  _435
REMARK  178  A    between atoms: _435  and  _436
REMARK  179  A    between atoms: _439  and  _441
REMARK  180  A    between atoms: _441  and  _442
REMARK  181  A    between atoms: _444  and  _446
REMARK  182  A    between atoms: _446  and  _447
REMARK  183  A    between atoms: _446  and  _449
REMARK  184  A    between atoms: _449  and  _450
REMARK  185  A    between atoms: _453  and  _455
REMARK  186  A    between atoms: _455  and  _456
REMARK  187  A    between atoms: _455  and  _458
REMARK  188  A    between atoms: _458  and  _459
REMARK  189  A    between atoms: _461  and  _463
REMARK  190  A    between atoms: _463  and  _464
REMARK  191  A    between atoms: _463  and  _466
REMARK  192  A    between atoms: _466  and  _467
REMARK  193  A    between atoms: _470  and  _472
REMARK  194  A    between atoms: _472  and  _473
REMARK  195  A    between atoms: _472  and  _475
REMARK  196  A    between atoms: _475  and  _476
REMARK  197  A    between atoms: _476  and  _477
REMARK  198  A    between atoms: _479  and  _481
REMARK  199  A    between atoms: _481  and  _482
REMARK  200  A    between atoms: _481  and  _484
REMARK  201  A    between atoms: _487  and  _489
REMARK  202  A    between atoms: _489  and  _490
REMARK  203  A    between atoms: _489  and  _492
REMARK  204  A    between atoms: _492  and  _493
REMARK  205  A    between atoms: _496  and  _498
REMARK  206  A    between atoms: _498  and  _499
REMARK  207  A    between atoms: _498  and  _501
REMARK  208  A    between atoms: _501  and  _502
REMARK  209  A    between atoms: _502  and  _503
REMARK  210  A    between atoms: _508  and  _510
REMARK  211  A    between atoms: _510  and  _511
REMARK  212  A    between atoms: _510  and  _513
REMARK  213  A    between atoms: _513  and  _514
REMARK  214  A    between atoms: _514  and  _515
REMARK  215  A    between atoms: _518  and  _520
REMARK  216  A    between atoms: _520  and  _521
REMARK  217  A    between atoms: _520  and  _523
REMARK  218  A    between atoms: _523  and  _524
REMARK  219  A    between atoms: _527  and  _529
REMARK  220  A    between atoms: _529  and  _530
REMARK  221  A    between atoms: _529  and  _532
REMARK  222  A    between atoms: _535  and  _537
REMARK  223  A    between atoms: _537  and  _538
REMARK  224  A    between atoms: _537  and  _540
REMARK  225  A    between atoms: _540  and  _541
REMARK  226  A    between atoms: _544  and  _546
REMARK  227  A    between atoms: _546  and  _547
REMARK  228  A    between atoms: _546  and  _549
REMARK  229  A    between atoms: _549  and  _550
REMARK  230  A    between atoms: _552  and  _554
REMARK  231  A    between atoms: _554  and  _555
REMARK  232  A    between atoms: _554  and  _557
REMARK  233  A    between atoms: _557  and  _558
REMARK  234  A    between atoms: _558  and  _559
REMARK  235  A    between atoms: _561  and  _563
REMARK  236  A    between atoms: _563  and  _564
REMARK  237  A    between atoms: _563  and  _566
REMARK  238  A    between atoms: _566  and  _567
REMARK  239  A    between atoms: _567  and  _568
REMARK  240  A    between atoms: _570  and  _572
REMARK  241  A    between atoms: _572  and  _573
REMARK  242  A    between atoms: _572  and  _575
REMARK  243  A    between atoms: _575  and  _576
REMARK  244  A    between atoms: _579  and  _581
REMARK  245  A    between atoms: _581  and  _582
REMARK  246  A    between atoms: _581  and  _584
REMARK  247  A    between atoms: _584  and  _585
REMARK  248  A    between atoms: _589  and  _590
REMARK  249  A    between atoms: _595  and  _597
REMARK  250  A    between atoms: _597  and  _598
REMARK  251  A    between atoms: _597  and  _600
REMARK  252  A    between atoms: _600  and  _601
REMARK  253  A    between atoms: _603  and  _605
REMARK  254  A    between atoms: _605  and  _606
REMARK  255  A    between atoms: _608  and  _610
REMARK  256  A    between atoms: _610  and  _611
REMARK  257  A    between atoms: _610  and  _613
REMARK  258  A    between atoms: _613  and  _614
REMARK  259  A    between atoms: _617  and  _619
REMARK  260  A    between atoms: _619  and  _620
REMARK  261  A    between atoms: _619  and  _622
REMARK  262  A    between atoms: _622  and  _623
REMARK  263  A    between atoms: _626  and  _628
REMARK  264  A    between atoms: _628  and  _629
REMARK  265  A    between atoms: _631  and  _633
REMARK  266  A    between atoms: _633  and  _634
REMARK  267  A    between atoms: _633  and  _636
REMARK  268  A    between atoms: _636  and  _637
REMARK                            x       y       z     vdW  Elec       q    Type
REMARK                         _______ _______ _______ _____ _____    ______ ____
ROOT
ATOM      1  CG  TRP A   1       7.803  93.941  10.655  0.00  0.00    -0.002 A 
ATOM      2  CD1 TRP A   1       8.911  94.634  11.053  0.00  0.00    +0.068 A 
ATOM      3  NE1 TRP A   1       9.864  94.254  10.240  0.00  0.00    -0.352 N 
ATOM      4  HE1 TRP A   1      10.845  94.597  10.274  0.00  0.00    +0.166 HD
ATOM      5  CE2 TRP A   1       9.396  93.361   9.359  0.00  0.00    +0.056 A 
ATOM      6  CZ2 TRP A   1      10.051  92.723   8.335  0.00  0.00    +0.017 A 
ATOM      7  CH2 TRP A   1       9.373  91.836   7.535  0.00  0.00    +0.001 A 
ATOM      8  CZ3 TRP A   1       8.040  91.590   7.748  0.00  0.00    +0.000 A 
ATOM      9  CE3 TRP A   1       7.372  92.225   8.774  0.00  0.00    +0.001 A 
ATOM     10  CD2 TRP A   1       8.052  93.120   9.584  0.00  0.00    +0.013 A 
ENDROOT
BRANCH   1  11
ATOM     11  CB  TRP A   1       6.464  94.165  11.340  0.00  0.00    +0.053 C 
BRANCH  11  12
ATOM     12  CA  TRP A   1       5.998  93.132  12.376  0.00  0.00    +0.137 C 
BRANCH  12  13
ATOM     13  N   TRP A   1       6.895  93.057  13.501  0.00  0.00    -0.239 NA
ATOM     14  H   TRP A   1       7.590  92.285  13.557  0.00  0.00    +0.142 HD
ENDBRANCH  12  13
BRANCH  12  15
ATOM     15  C   TRP A   1       5.875  91.784  11.699  0.00  0.00    +0.224 C 
ATOM     16  O   TRP A   1       6.734  90.915  11.877  0.00  0.00    -0.287 OA
ENDBRANCH  12  15
ENDBRANCH  11  12
ENDBRANCH   1  11
TORSDOF 4
REMARK  Name = ../refined-set-2016/1lyb/1lyb_pocket.pdb
REMARK  268 active torsions:
REMARK  status: ('A' for Active; 'I' for Inactive)
REMARK    1  A    between atoms: _1  and  _3
REMARK    2  A    between atoms: _3  and  _4
REMARK    3  A    between atoms: _3  and  _6
REMARK    4  A    between atoms: _6  and  _7
REMARK    5  A    between atoms: _7  and  _8
REMARK    6  A    between atoms: _10  and  _12
REMARK    7  A    between atoms: _12  and  _13
REMARK    8  A    between atoms: _12  and  _15
REMARK    9  A    between atoms: _15  and  _16
REMARK   10  A    between atoms: _19  and  _21
REMARK   11  A    between atoms: _21  and  _22
REMARK   12  A    between atoms: _25  and  _27
REMARK   13  A    between atoms: _27  and  _28
REMARK   14  A    between atoms: _27  and  _30
REMARK   15  A    between atoms: _30  and  _31
REMARK   16  A    between atoms: _31  and  _32
REMARK   17  A    between atoms: _37  and  _39
REMARK   18  A    between atoms: _39  and  _40
REMARK   19  A    between atoms: _39  and  _42
REMARK   20  A    between atoms: _42  and  _43
REMARK   21  A    between atoms: _48  and  _49
REMARK   22  A    between atoms: _51  and  _53
REMARK   23  A    between atoms: _53  and  _54
REMARK   24  A    between atoms: _53  and  _56
REMARK   25  A    between atoms: _59  and  _61
REMARK   26  A    between atoms: _61  and  _62
REMARK   27  A    between atoms: _61  and  _64
REMARK   28  A    between atoms: _67  and  _69
REMARK   29  A    between atoms: _69  and  _70
REMARK   30  A    between atoms: _69  and  _72
REMARK   31  A    between atoms: _72  and  _73
REMARK   32  A    between atoms: _79  and  _81
REMARK   33  A    between atoms: _81  and  _82
REMARK   34  A    between atoms: _81  and  _84
REMARK   35  A    between atoms: _84  and  _85
REMARK   36  A    between atoms: _88  and  _90
REMARK   37  A    between atoms: _90  and  _91
REMARK   38  A    between atoms: _90  and  _93
REMARK   39  A    between atoms: _93  and  _94
REMARK   40  A    between atoms: _97  and  _99
REMARK   41  A    between atoms: _99  and  _100
REMARK   42  A    between atoms: _102  and  _104
REMARK   43  A    between atoms: _104  and  _105
REMARK   44  A    between atoms: _104  and  _107
REMARK   45  A    between atoms: _107  and  _108
REMARK   46  A    between atoms: _110  and  _112
REMARK   47  A    between atoms: _112  and  _113
REMARK   48  A    between atoms: _112  and  _115
REMARK   49  A    between atoms: _115  and  _116
REMARK   50  A    between atoms: _118  and  _120
REMARK   51  A    between atoms: _120  and  _121
REMARK   52  A    between atoms: _120  and  _123
REMARK   53  A    between atoms: _123  and  _124
REMARK   54  A    between atoms: _129  and  _131
REMARK   55  A    between atoms: _131  and  _132
REMARK   56  A    between atoms: _131  and  _134
REMARK   57  A    between atoms: _134  and  _135
REMARK   58  A    between atoms: _145  and  _147
REMARK   59  A    between atoms: _147  and  _148
REMARK   60  A    between atoms: _147  and  _150
REMARK   61  A    between atoms: _150  and  _151
REMARK   62  A    between atoms: _154  and  _156
REMARK   63  A    between atoms: _156  and  _157
REMARK   64  A    between atoms: _156  and  _159
REMARK   65  A    between atoms: _159  and  _160
REMARK   66  A    between atoms: _163  and  _165
REMARK   67  A    between atoms: _165  and  _166
REMARK   68  A    between atoms: _165  and  _168
REMARK   69  A    between atoms: _168  and  _169
REMARK   70  A    between atoms: _174  and  _176
REMARK   71  A    between atoms: _176  and  _177
REMARK   72  A    between atoms: _176  and  _179
REMARK   73  A    between atoms: _179  and  _180
REMARK   74  A    between atoms: _185  and  _186
REMARK   75  A    between atoms: _188  and  _190
REMARK   76  A    between atoms: _190  and  _191
REMARK   77  A    between atoms: _193  and  _195
REMARK   78  A    between atoms: _195  and  _196
REMARK   79  A    between atoms: _195  and  _198
REMARK   80  A    between atoms: _198  and  _199
REMARK   81  A    between atoms: _201  and  _203
REMARK   82  A    between atoms: _203  and  _204
REMARK   83  A    between atoms: _206  and  _208
REMARK   84  A    between atoms: _208  and  _209
REMARK   85  A    between atoms: _208  and  _211
REMARK   86  A    between atoms: _211  and  _212
REMARK   87  A    between atoms: _214  and  _216
REMARK   88  A    between atoms: _216  and  _217
REMARK   89  A    between atoms: _216  and  _219
REMARK   90  A    between atoms: _219  and  _220
REMARK   91  A    between atoms: _223  and  _225
REMARK   92  A    between atoms: _225  and  _226
REMARK   93  A    between atoms: _225  and  _228
REMARK   94  A    between atoms: _228  and  _229
REMARK   95  A    between atoms: _232  and  _234
REMARK   96  A    between atoms: _234  and  _235
REMARK   97  A    between atoms: _234  and  _237
REMARK   98  A    between atoms: _237  and  _238
REMARK   99  A    between atoms: _244  and  _246
REMARK  100  A    between atoms: _246  and  _247
REMARK  101  A    between atoms: _250  and  _252
REMARK  102  A    between atoms: _252  and  _253
REMARK  103  A    between atoms: _256  and  _258
REMARK  104  A    between atoms: _258  and  _259
REMARK  105  A    between atoms: _258  and  _261
REMARK  106  A    between atoms: _261  and  _262
REMARK  107  A    between atoms: _262  and  _263
REMARK  108  A    between atoms: _263  and  _264
REMARK  109  A    between atoms: _264  and  _265
REMARK  110  A    between atoms: _269  and  _271
REMARK  111  A    between atoms: _271  and  _272
REMARK  112  A    between atoms: _271  and  _274
REMARK  113  A    between atoms: _274  and  _275
REMARK  114  A    between atoms: _281  and  _283
REMARK  115  A    between atoms: _283  and  _284
REMARK  116  A    between atoms: _286  and  _288
REMARK  117  A    between atoms: _288  and  _289
REMARK  118  A    between atoms: _288  and  _291
REMARK  119  A    between atoms: _291  and  _292
REMARK  120  A    between atoms: _295  and  _297
REMARK  121  A    between atoms: _297  and  _298
REMARK  122  A    between atoms: _297  and  _300
REMARK  123  A    between atoms: _300  and  _301
REMARK  124  A    between atoms: _304  and  _306
REMARK  125  A    between atoms: _306  and  _307
REMARK  126  A    between atoms: _306  and  _309
REMARK  127  A    between atoms: _309  and  _310
REMARK  128  A    between atoms: _310  and  _311
REMARK  129  A    between atoms: _313  and  _315
REMARK  130  A    between atoms: _315  and  _316
REMARK  131  A    between atoms: _319  and  _321
REMARK  132  A    between atoms: _321  and  _322
REMARK  133  A    between atoms: _321  and  _324
REMARK  134  A    between atoms: _324  and  _325
REMARK  135  A    between atoms: _328  and  _330
REMARK  136  A    between atoms: _330  and  _331
REMARK  137  A    between atoms: _330  and  _333
REMARK  138  A    between atoms: _333  and  _334
REMARK  139  A    between atoms: _336  and  _338
REMARK  140  A    between atoms: _338  and  _339
REMARK  141  A    between atoms: _338  and  _341
REMARK  142  A    between atoms: _344  and  _346
REMARK  143  A    between atoms: _346  and  _347
REMARK  144  A    between atoms: _346  and  _349
REMARK  145  A    between atoms: _349  and  _350
REMARK  146  A    between atoms: _350  and  _351
REMARK  147  A    between atoms: _351  and  _352
REMARK  148  A    between atoms: _361  and  _363
REMARK  149  A    between atoms: _363  and  _364
REMARK  150  A    between atoms: _363  and  _366
REMARK  151  A    between atoms: _366  and  _367
REMARK  152  A    between atoms: _367  and  _368
REMARK  153  A    between atoms: _368  and  _369
REMARK  154  A    between atoms: _378  and  _380
REMARK  155  A    between atoms: _380  and  _381
REMARK  156  A    between atoms: _380  and  _383
REMARK  157  A    between atoms: _383  and  _384
REMARK  158  A    between atoms: _389  and  _390
REMARK  159  A    between atoms: _392  and  _394
REMARK  160  A    between atoms: _394  and  _395
REMARK  161  A    between atoms: _394  and  _397
REMARK  162  A    between atoms: _397  and  _398
REMARK  163  A    between atoms: _398  and  _399
REMARK  164  A    between atoms: _404  and  _406
REMARK  165  A    between atoms: _406  and  _407
REMARK  166  A    between atoms: _406  and  _409
REMARK  167  A    between atoms: _409  and  _410
REMARK  168  A    between atoms: _413  and  _415
REMARK  169  A    between atoms: _415  and  _416
REMARK  170  A    between atoms: _415  and  _418
REMARK  171  A    between atoms: _421  and  _423
REMARK  172  A    between atoms: _423  and  _424
REMARK  173  A    between atoms: _423  and  _426
REMARK  174  A    between atoms: _426  and  _427
REMARK  175  A    between atoms: _430  and  _432
REMARK  176  A    between atoms: _432  and  _433
REMARK  177  A    between atoms: _432  and  _435
REMARK  178  A    between atoms: _435  and  _436
REMARK  179  A    between atoms: _439  and  _441
REMARK  180  A    between atoms: _441  and  _442
REMARK  181  A    between atoms: _444  and  _446
REMARK  182  A    between atoms: _446  and  _447
REMARK  183  A    between atoms: _446  and  _449
REMARK  184  A    between atoms: _449  and  _450
REMARK  185  A    between atoms: _453  and  _455
REMARK  186  A    between atoms: _455  and  _456
REMARK  187  A    between atoms: _455  and  _458
REMARK  188  A    between atoms: _458  and  _459
REMARK  189  A    between atoms: _461  and  _463
REMARK  190  A    between atoms: _463  and  _464
REMARK  191  A    between atoms: _463  and  _466
REMARK  192  A    between atoms: _466  and  _467
REMARK  193  A    between atoms: _470  and  _472
REMARK  194  A    between atoms: _472  and  _473
REMARK  195  A    between atoms: _472  and  _475
REMARK  196  A    between atoms: _475  and  _476
REMARK  197  A    between atoms: _476  and  _477
REMARK  198  A    between atoms: _479  and  _481
REMARK  199  A    between atoms: _481  and  _482
REMARK  200  A    between atoms: _481  and  _484
REMARK  201  A    between atoms: _487  and  _489
REMARK  202  A    between atoms: _489  and  _490
REMARK  203  A    between atoms: _489  and  _492
REMARK  204  A    between atoms: _492  and  _493
REMARK  205  A    between atoms: _496  and  _498
REMARK  206  A    between atoms: _498  and  _499
REMARK  207  A    between atoms: _498  and  _501
REMARK  208  A    between atoms: _501  and  _502
REMARK  209  A    between atoms: _502  and  _503
REMARK  210  A    between atoms: _508  and  _510
REMARK  211  A    between atoms: _510  and  _511
REMARK  212  A    between atoms: _510  and  _513
REMARK  213  A    between atoms: _513  and  _514
REMARK  214  A    between atoms: _514  and  _515
REMARK  215  A    between atoms: _518  and  _520
REMARK  216  A    between atoms: _520  and  _521
REMARK  217  A    between atoms: _520  and  _523
REMARK  218  A    between atoms: _523  and  _524
REMARK  219  A    between atoms: _527  and  _529
REMARK  220  A    between atoms: _529  and  _530
REMARK  221  A    between atoms: _529  and  _532
REMARK  222  A    between atoms: _535  and  _537
REMARK  223  A    between atoms: _537  and  _538
REMARK  224  A    between atoms: _537  and  _540
REMARK  225  A    between atoms: _540  and  _541
REMARK  226  A    between atoms: _544  and  _546
REMARK  227  A    between atoms: _546  and  _547
REMARK  228  A    between atoms: _546  and  _549
REMARK  229  A    between atoms: _549  and  _550
REMARK  230  A    between atoms: _552  and  _554
REMARK  231  A    between atoms: _554  and  _555
REMARK  232  A    between atoms: _554  and  _557
REMARK  233  A    between atoms: _557  and  _558
REMARK  234  A    between atoms: _558  and  _559
REMARK  235  A    between atoms: _561  and  _563
REMARK  236  A    between atoms: _563  and  _564
REMARK  237  A    between atoms: _563  and  _566
REMARK  238  A    between atoms: _566  and  _567
REMARK  239  A    between atoms: _567  and  _568
REMARK  240  A    between atoms: _570  and  _572
REMARK  241  A    between atoms: _572  and  _573
REMARK  242  A    between atoms: _572  and  _575
REMARK  243  A    between atoms: _575  and  _576
REMARK  244  A    between atoms: _579  and  _581
REMARK  245  A    between atoms: _581  and  _582
REMARK  246  A    between atoms: _581  and  _584
REMARK  247  A    between atoms: _584  and  _585
REMARK  248  A    between atoms: _589  and  _590
REMARK  249  A    between atoms: _595  and  _597
REMARK  250  A    between atoms: _597  and  _598
REMARK  251  A    between atoms: _597  and  _600
REMARK  252  A    between atoms: _600  and  _601
REMARK  253  A    between atoms: _603  and  _605
REMARK  254  A    between atoms: _605  and  _606
REMARK  255  A    between atoms: _608  and  _610
REMARK  256  A    between atoms: _610  and  _611
REMARK  257  A    between atoms: _610  and  _613
REMARK  258  A    between atoms: _613  and  _614
REMARK  259  A    between atoms: _617  and  _619
REMARK  260  A    between atoms: _619  and  _620
REMARK  261  A    between atoms: _619  and  _622
REMARK  262  A    between atoms: _622  and  _623
REMARK  263  A    between atoms: _626  and  _628
REMARK  264  A    between atoms: _628  and  _629
REMARK  265  A    between atoms: _631  and  _633
REMARK  266  A    between atoms: _633  and  _634
REMARK  267  A    between atoms: _633  and  _636
REMARK  268  A    between atoms: _636  and  _637
REMARK                            x       y       z     vdW  Elec       q    Type
REMARK                         _______ _______ _______ _____ _____    ______ ____
ROOT
ATOM      1  CA  TYR A   4      16.849  98.480   7.715  0.00  0.00    +0.153 C 
ENDROOT
BRANCH   1   4
ATOM      2  C   HIS A   3      15.366 100.390   7.439  0.00  0.00    +0.241 C 
ATOM      3  O   HIS A   3      15.721 100.935   8.490  0.00  0.00    -0.273 OA
ATOM      4  N   TYR A   4      15.797  99.212   7.044  0.00  0.00    -0.297 N 
ATOM      5  H   TYR A   4      15.358  98.784   6.204  0.00  0.00    +0.150 HD
BRANCH   2   6
ATOM      6  CA  HIS A   3      14.299 101.024   6.580  0.00  0.00    +0.155 C 
BRANCH   6   8
ATOM      7  C   ILE A   2      12.042 100.858   7.423  0.00  0.00    +0.241 C 
ATOM      8  N   HIS A   3      13.258 101.387   7.544  0.00  0.00    -0.297 N 
ATOM      9  H   HIS A   3      13.467 102.052   8.316  0.00  0.00    +0.150 HD
ATOM     10  O   ILE A   2      11.740 100.186   6.428  0.00  0.00    -0.273 OA
BRANCH   7  11
ATOM     11  CA  ILE A   2      11.007 101.120   8.490  0.00  0.00    +0.148 C 
BRANCH  11  14
ATOM     12  C   ASP A   1       8.917 102.351   8.098  0.00  0.00    +0.239 C 
ATOM     13  O   ASP A   1       9.320 103.179   8.921  0.00  0.00    -0.274 OA
ATOM     14  N   ILE A   2       9.707 101.294   7.823  0.00  0.00    -0.297 N 
ATOM     15  H   ILE A   2       9.392 100.589   7.127  0.00  0.00    +0.150 HD
BRANCH  12  16
ATOM     16  CA  ASP A   1       7.536 102.605   7.482  0.00  0.00    +0.156 C 
BRANCH  16  17
ATOM     17  N   ASP A   1       6.600 102.795   8.580  0.00  0.00    -0.238 NA
ATOM     18  H   ASP A   1       6.957 103.261   9.438  0.00  0.00    +0.142 HD
ENDBRANCH  16  17
BRANCH  16  19
ATOM     19  CB  ASP A   1       7.426 103.902   6.647  0.00  0.00    +0.140 C 
BRANCH  19  20
ATOM     20  CG  ASP A   1       8.560 104.146   5.673  0.00  0.00    +0.367 C 
ATOM     21  OD2 ASP A   1       9.236 105.157   5.850  0.00  0.00    -0.246 OA
ATOM     22  OD1 ASP A   1       8.777 103.351   4.752  0.00  0.00    -0.246 OA
ENDBRANCH  19  20
ENDBRANCH  16  19
ENDBRANCH  12  16
ENDBRANCH  11  14
BRANCH  11  23
ATOM     23  CB  ILE A   2      11.090  99.906   9.465  0.00  0.00    +0.027 C 
ATOM     24  CG2 ILE A   2      12.193 100.223  10.467  0.00  0.00    +0.002 C 
BRANCH  23  25
ATOM     25  CG1 ILE A   2       9.820  99.658  10.243  0.00  0.00    +0.002 C 
ATOM     26  CD1 ILE A   2       9.959  98.561  11.303  0.00  0.00    +0.000 C 
ENDBRANCH  23  25
ENDBRANCH  11  23
ENDBRANCH   7  11
ENDBRANCH   6   8
BRANCH   6  27
ATOM     27  CB  HIS A   3      15.017 102.175   5.881  0.00  0.00    +0.076 C 
BRANCH  27  28
ATOM     28  CG  HIS A   3      14.050 103.228   5.407  0.00  0.00    +0.082 A 
ATOM     29  CD2 HIS A   3      13.766 104.329   6.168  0.00  0.00    +0.115 A 
ATOM     30  NE2 HIS A   3      12.868 104.981   5.487  0.00  0.00    -0.221 NA
ATOM     31  CE1 HIS A   3      12.595 104.359   4.362  0.00  0.00    +0.199 A 
ATOM     32  ND1 HIS A   3      13.319 103.281   4.300  0.00  0.00    -0.227 NA
ENDBRANCH  27  28
ENDBRANCH   6  27
ENDBRANCH   2   6
ENDBRANCH   1   4
BRANCH   1  33
ATOM     33  C   TYR A   4      18.072  98.626   6.832  0.00  0.00    +0.241 C 
ATOM     34  N   GLY A   5      19.244  98.276   7.354  0.00  0.00    -0.295 N 
ATOM     35  H   GLY A   5      19.291  97.982   8.351  0.00  0.00    +0.150 HD
ATOM     36  O   TYR A   4      17.949  99.002   5.655  0.00  0.00    -0.273 OA
BRANCH  34  37
ATOM     37  CA  GLY A   5      20.455  98.296   6.563  0.00  0.00    +0.176 C 
BRANCH  37  38
ATOM     38  C   GLY A   5      20.290  97.345   5.399  0.00  0.00    +0.243 C 
ATOM     39  N   SER A   6      19.479  96.300   5.595  0.00  0.00    -0.295 N 
ATOM     40  H   SER A   6      19.110  96.159   6.557  0.00  0.00    +0.150 HD
ATOM     41  O   GLY A   5      20.917  97.517   4.367  0.00  0.00    -0.273 OA
BRANCH  39  42
ATOM     42  CA  SER A   6      19.072  95.353   4.590  0.00  0.00    +0.178 C 
BRANCH  42  43
ATOM     43  C   SER A   6      17.823  95.649   3.793  0.00  0.00    +0.243 C 
ATOM     44  N   GLY A   7      16.744  96.288   4.258  0.00  0.00    -0.295 N 
ATOM     45  H   GLY A   7      16.755  96.726   5.201  0.00  0.00    +0.150 HD
ATOM     46  O   SER A   6      17.820  95.309   2.608  0.00  0.00    -0.273 OA
BRANCH  44  47
ATOM     47  CA  GLY A   7      15.541  96.362   3.414  0.00  0.00    +0.176 C 
BRANCH  47  48
ATOM     48  C   GLY A   7      14.503  97.380   3.839  0.00  0.00    +0.243 C 
ATOM     49  O   GLY A   7      14.627  97.997   4.889  0.00  0.00    -0.273 OA
ATOM     50  N   SER A   8      13.444  97.560   3.070  0.00  0.00    -0.295 N 
ATOM     51  H   SER A   8      13.322  96.964   2.226  0.00  0.00    +0.150 HD
BRANCH  50  52
ATOM     52  CA  SER A   8      12.459  98.558   3.372  0.00  0.00    +0.178 C 
BRANCH  52  53
ATOM     53  C   SER A   8      11.111  97.920   3.486  0.00  0.00    +0.243 C 
ATOM     54  N   LEU A   9      10.227  98.396   4.345  0.00  0.00    -0.298 N 
ATOM     55  H   LEU A   9      10.511  99.133   5.021  0.00  0.00    +0.150 HD
ATOM     56  O   SER A   8      10.865  96.955   2.770  0.00  0.00    -0.273 OA
BRANCH  54  57
ATOM     57  CA  LEU A   9       8.854  97.896   4.353  0.00  0.00    +0.137 C 
BRANCH  57  58
ATOM     58  C   LEU A   9       7.949  99.013   4.808  0.00  0.00    +0.227 C 
ATOM     59  O   LEU A   9       8.419 100.078   5.241  0.00  0.00    -0.286 OA
ENDBRANCH  57  58
BRANCH  57  60
ATOM     60  CB  LEU A   9       8.698  96.727   5.297  0.00  0.00    +0.028 C 
BRANCH  60  61
ATOM     61  CG  LEU A   9       9.086  97.001   6.705  0.00  0.00    +0.002 C 
ATOM     62  CD2 LEU A   9       8.078  96.368   7.610  0.00  0.00    +0.000 C 
ATOM     63  CD1 LEU A   9      10.457  96.443   6.976  0.00  0.00    +0.000 C 
ENDBRANCH  60  61
ENDBRANCH  57  60
ENDBRANCH  54  57
ENDBRANCH  52  53
BRANCH  52  64
ATOM     64  CB  SER A   8      12.408  99.550   2.264  0.00  0.00    +0.166 C 
BRANCH  64  65
ATOM     65  OG  SER A   8      12.715 100.821   2.821  0.00  0.00    -0.380 OA
ATOM     66  H   SER A   8      12.690 101.507   2.108  0.00  0.00    +0.211 HD
ENDBRANCH  64  65
ENDBRANCH  52  64
ENDBRANCH  50  52
ENDBRANCH  47  48
ENDBRANCH  44  47
ENDBRANCH  42  43
BRANCH  42  67
ATOM     67  CB  SER A   6      18.876  94.002   5.209  0.00  0.00    +0.166 C 
BRANCH  67  68
ATOM     68  OG  SER A   6      20.162  93.438   5.407  0.00  0.00    -0.380 OA
ATOM     69  H   SER A   6      20.689  94.023   6.008  0.00  0.00    +0.211 HD
ENDBRANCH  67  68
ENDBRANCH  42  67
ENDBRANCH  39  42
ENDBRANCH  37  38
ENDBRANCH  34  37
ENDBRANCH   1  33
BRANCH   1  70
ATOM     70  CB  TYR A   4      16.460  97.029   7.819  0.00  0.00    +0.055 C 
BRANCH  70  71
ATOM     71  CG  TYR A   4      15.305  96.875   8.792  0.00  0.00    -0.020 A 
ATOM     72  CD2 TYR A   4      15.558  96.766  10.147  0.00  0.00    -0.001 A 
ATOM     73  CE2 TYR A   4      14.525  96.534  11.047  0.00  0.00    +0.036 A 
ATOM     74  CZ  TYR A   4      13.246  96.409  10.571  0.00  0.00    +0.134 A 
ATOM     75  CE1 TYR A   4      12.993  96.548   9.231  0.00  0.00    +0.036 A 
ATOM     76  CD1 TYR A   4      14.013  96.775   8.337  0.00  0.00    -0.001 A 
BRANCH  74  77
ATOM     77  OH  TYR A   4      12.220  96.078  11.431  0.00  0.00    -0.506 OA
ATOM     78  HH  TYR A   4      12.571  96.018  12.355  0.00  0.00    +0.292 HD
ENDBRANCH  74  77
ENDBRANCH  70  71
ENDBRANCH   1  70
TORSDOF 33
REMARK  Name = ../refined-set-2016/1lyb/1lyb_pocket.pdb
REMARK  268 active torsions:
REMARK  status: ('A' for Active; 'I' for Inactive)
REMARK    1  A    between atoms: _1  and  _3
REMARK    2  A    between atoms: _3  and  _4
REMARK    3  A    between atoms: _3  and  _6
REMARK    4  A    between atoms: _6  and  _7
REMARK    5  A    between atoms: _7  and  _8
REMARK    6  A    between atoms: _10  and  _12
REMARK    7  A    between atoms: _12  and  _13
REMARK    8  A    between atoms: _12  and  _15
REMARK    9  A    between atoms: _15  and  _16
REMARK   10  A    between atoms: _19  and  _21
REMARK   11  A    between atoms: _21  and  _22
REMARK   12  A    between atoms: _25  and  _27
REMARK   13  A    between atoms: _27  and  _28
REMARK   14  A    between atoms: _27  and  _30
REMARK   15  A    between atoms: _30  and  _31
REMARK   16  A    between atoms: _31  and  _32
REMARK   17  A    between atoms: _37  and  _39
REMARK   18  A    between atoms: _39  and  _40
REMARK   19  A    between atoms: _39  and  _42
REMARK   20  A    between atoms: _42  and  _43
REMARK   21  A    between atoms: _48  and  _49
REMARK   22  A    between atoms: _51  and  _53
REMARK   23  A    between atoms: _53  and  _54
REMARK   24  A    between atoms: _53  and  _56
REMARK   25  A    between atoms: _59  and  _61
REMARK   26  A    between atoms: _61  and  _62
REMARK   27  A    between atoms: _61  and  _64
REMARK   28  A    between atoms: _67  and  _69
REMARK   29  A    between atoms: _69  and  _70
REMARK   30  A    between atoms: _69  and  _72
REMARK   31  A    between atoms: _72  and  _73
REMARK   32  A    between atoms: _79  and  _81
REMARK   33  A    between atoms: _81  and  _82
REMARK   34  A    between atoms: _81  and  _84
REMARK   35  A    between atoms: _84  and  _85
REMARK   36  A    between atoms: _88  and  _90
REMARK   37  A    between atoms: _90  and  _91
REMARK   38  A    between atoms: _90  and  _93
REMARK   39  A    between atoms: _93  and  _94
REMARK   40  A    between atoms: _97  and  _99
REMARK   41  A    between atoms: _99  and  _100
REMARK   42  A    between atoms: _102  and  _104
REMARK   43  A    between atoms: _104  and  _105
REMARK   44  A    between atoms: _104  and  _107
REMARK   45  A    between atoms: _107  and  _108
REMARK   46  A    between atoms: _110  and  _112
REMARK   47  A    between atoms: _112  and  _113
REMARK   48  A    between atoms: _112  and  _115
REMARK   49  A    between atoms: _115  and  _116
REMARK   50  A    between atoms: _118  and  _120
REMARK   51  A    between atoms: _120  and  _121
REMARK   52  A    between atoms: _120  and  _123
REMARK   53  A    between atoms: _123  and  _124
REMARK   54  A    between atoms: _129  and  _131
REMARK   55  A    between atoms: _131  and  _132
REMARK   56  A    between atoms: _131  and  _134
REMARK   57  A    between atoms: _134  and  _135
REMARK   58  A    between atoms: _145  and  _147
REMARK   59  A    between atoms: _147  and  _148
REMARK   60  A    between atoms: _147  and  _150
REMARK   61  A    between atoms: _150  and  _151
REMARK   62  A    between atoms: _154  and  _156
REMARK   63  A    between atoms: _156  and  _157
REMARK   64  A    between atoms: _156  and  _159
REMARK   65  A    between atoms: _159  and  _160
REMARK   66  A    between atoms: _163  and  _165
REMARK   67  A    between atoms: _165  and  _166
REMARK   68  A    between atoms: _165  and  _168
REMARK   69  A    between atoms: _168  and  _169
REMARK   70  A    between atoms: _174  and  _176
REMARK   71  A    between atoms: _176  and  _177
REMARK   72  A    between atoms: _176  and  _179
REMARK   73  A    between atoms: _179  and  _180
REMARK   74  A    between atoms: _185  and  _186
REMARK   75  A    between atoms: _188  and  _190
REMARK   76  A    between atoms: _190  and  _191
REMARK   77  A    between atoms: _193  and  _195
REMARK   78  A    between atoms: _195  and  _196
REMARK   79  A    between atoms: _195  and  _198
REMARK   80  A    between atoms: _198  and  _199
REMARK   81  A    between atoms: _201  and  _203
REMARK   82  A    between atoms: _203  and  _204
REMARK   83  A    between atoms: _206  and  _208
REMARK   84  A    between atoms: _208  and  _209
REMARK   85  A    between atoms: _208  and  _211
REMARK   86  A    between atoms: _211  and  _212
REMARK   87  A    between atoms: _214  and  _216
REMARK   88  A    between atoms: _216  and  _217
REMARK   89  A    between atoms: _216  and  _219
REMARK   90  A    between atoms: _219  and  _220
REMARK   91  A    between atoms: _223  and  _225
REMARK   92  A    between atoms: _225  and  _226
REMARK   93  A    between atoms: _225  and  _228
REMARK   94  A    between atoms: _228  and  _229
REMARK   95  A    between atoms: _232  and  _234
REMARK   96  A    between atoms: _234  and  _235
REMARK   97  A    between atoms: _234  and  _237
REMARK   98  A    between atoms: _237  and  _238
REMARK   99  A    between atoms: _244  and  _246
REMARK  100  A    between atoms: _246  and  _247
REMARK  101  A    between atoms: _250  and  _252
REMARK  102  A    between atoms: _252  and  _253
REMARK  103  A    between atoms: _256  and  _258
REMARK  104  A    between atoms: _258  and  _259
REMARK  105  A    between atoms: _258  and  _261
REMARK  106  A    between atoms: _261  and  _262
REMARK  107  A    between atoms: _262  and  _263
REMARK  108  A    between atoms: _263  and  _264
REMARK  109  A    between atoms: _264  and  _265
REMARK  110  A    between atoms: _269  and  _271
REMARK  111  A    between atoms: _271  and  _272
REMARK  112  A    between atoms: _271  and  _274
REMARK  113  A    between atoms: _274  and  _275
REMARK  114  A    between atoms: _281  and  _283
REMARK  115  A    between atoms: _283  and  _284
REMARK  116  A    between atoms: _286  and  _288
REMARK  117  A    between atoms: _288  and  _289
REMARK  118  A    between atoms: _288  and  _291
REMARK  119  A    between atoms: _291  and  _292
REMARK  120  A    between atoms: _295  and  _297
REMARK  121  A    between atoms: _297  and  _298
REMARK  122  A    between atoms: _297  and  _300
REMARK  123  A    between atoms: _300  and  _301
REMARK  124  A    between atoms: _304  and  _306
REMARK  125  A    between atoms: _306  and  _307
REMARK  126  A    between atoms: _306  and  _309
REMARK  127  A    between atoms: _309  and  _310
REMARK  128  A    between atoms: _310  and  _311
REMARK  129  A    between atoms: _313  and  _315
REMARK  130  A    between atoms: _315  and  _316
REMARK  131  A    between atoms: _319  and  _321
REMARK  132  A    between atoms: _321  and  _322
REMARK  133  A    between atoms: _321  and  _324
REMARK  134  A    between atoms: _324  and  _325
REMARK  135  A    between atoms: _328  and  _330
REMARK  136  A    between atoms: _330  and  _331
REMARK  137  A    between atoms: _330  and  _333
REMARK  138  A    between atoms: _333  and  _334
REMARK  139  A    between atoms: _336  and  _338
REMARK  140  A    between atoms: _338  and  _339
REMARK  141  A    between atoms: _338  and  _341
REMARK  142  A    between atoms: _344  and  _346
REMARK  143  A    between atoms: _346  and  _347
REMARK  144  A    between atoms: _346  and  _349
REMARK  145  A    between atoms: _349  and  _350
REMARK  146  A    between atoms: _350  and  _351
REMARK  147  A    between atoms: _351  and  _352
REMARK  148  A    between atoms: _361  and  _363
REMARK  149  A    between atoms: _363  and  _364
REMARK  150  A    between atoms: _363  and  _366
REMARK  151  A    between atoms: _366  and  _367
REMARK  152  A    between atoms: _367  and  _368
REMARK  153  A    between atoms: _368  and  _369
REMARK  154  A    between atoms: _378  and  _380
REMARK  155  A    between atoms: _380  and  _381
REMARK  156  A    between atoms: _380  and  _383
REMARK  157  A    between atoms: _383  and  _384
REMARK  158  A    between atoms: _389  and  _390
REMARK  159  A    between atoms: _392  and  _394
REMARK  160  A    between atoms: _394  and  _395
REMARK  161  A    between atoms: _394  and  _397
REMARK  162  A    between atoms: _397  and  _398
REMARK  163  A    between atoms: _398  and  _399
REMARK  164  A    between atoms: _404  and  _406
REMARK  165  A    between atoms: _406  and  _407
REMARK  166  A    between atoms: _406  and  _409
REMARK  167  A    between atoms: _409  and  _410
REMARK  168  A    between atoms: _413  and  _415
REMARK  169  A    between atoms: _415  and  _416
REMARK  170  A    between atoms: _415  and  _418
REMARK  171  A    between atoms: _421  and  _423
REMARK  172  A    between atoms: _423  and  _424
REMARK  173  A    between atoms: _423  and  _426
REMARK  174  A    between atoms: _426  and  _427
REMARK  175  A    between atoms: _430  and  _432
REMARK  176  A    between atoms: _432  and  _433
REMARK  177  A    between atoms: _432  and  _435
REMARK  178  A    between atoms: _435  and  _436
REMARK  179  A    between atoms: _439  and  _441
REMARK  180  A    between atoms: _441  and  _442
REMARK  181  A    between atoms: _444  and  _446
REMARK  182  A    between atoms: _446  and  _447
REMARK  183  A    between atoms: _446  and  _449
REMARK  184  A    between atoms: _449  and  _450
REMARK  185  A    between atoms: _453  and  _455
REMARK  186  A    between atoms: _455  and  _456
REMARK  187  A    between atoms: _455  and  _458
REMARK  188  A    between atoms: _458  and  _459
REMARK  189  A    between atoms: _461  and  _463
REMARK  190  A    between atoms: _463  and  _464
REMARK  191  A    between atoms: _463  and  _466
REMARK  192  A    between atoms: _466  and  _467
REMARK  193  A    between atoms: _470  and  _472
REMARK  194  A    between atoms: _472  and  _473
REMARK  195  A    between atoms: _472  and  _475
REMARK  196  A    between atoms: _475  and  _476
REMARK  197  A    between atoms: _476  and  _477
REMARK  198  A    between atoms: _479  and  _481
REMARK  199  A    between atoms: _481  and  _482
REMARK  200  A    between atoms: _481  and  _484
REMARK  201  A    between atoms: _487  and  _489
REMARK  202  A    between atoms: _489  and  _490
REMARK  203  A    between atoms: _489  and  _492
REMARK  204  A    between atoms: _492  and  _493
REMARK  205  A    between atoms: _496  and  _498
REMARK  206  A    between atoms: _498  and  _499
REMARK  207  A    between atoms: _498  and  _501
REMARK  208  A    between atoms: _501  and  _502
REMARK  209  A    between atoms: _502  and  _503
REMARK  210  A    between atoms: _508  and  _510
REMARK  211  A    between atoms: _510  and  _511
REMARK  212  A    between atoms: _510  and  _513
REMARK  213  A    between atoms: _513  and  _514
REMARK  214  A    between atoms: _514  and  _515
REMARK  215  A    between atoms: _518  and  _520
REMARK  216  A    between atoms: _520  and  _521
REMARK  217  A    between atoms: _520  and  _523
REMARK  218  A    between atoms: _523  and  _524
REMARK  219  A    between atoms: _527  and  _529
REMARK  220  A    between atoms: _529  and  _530
REMARK  221  A    between atoms: _529  and  _532
REMARK  222  A    between atoms: _535  and  _537
REMARK  223  A    between atoms: _537  and  _538
REMARK  224  A    between atoms: _537  and  _540
REMARK  225  A    between atoms: _540  and  _541
REMARK  226  A    between atoms: _544  and  _546
REMARK  227  A    between atoms: _546  and  _547
REMARK  228  A    between atoms: _546  and  _549
REMARK  229  A    between atoms: _549  and  _550
REMARK  230  A    between atoms: _552  and  _554
REMARK  231  A    between atoms: _554  and  _555
REMARK  232  A    between atoms: _554  and  _557
REMARK  233  A    between atoms: _557  and  _558
REMARK  234  A    between atoms: _558  and  _559
REMARK  235  A    between atoms: _561  and  _563
REMARK  236  A    between atoms: _563  and  _564
REMARK  237  A    between atoms: _563  and  _566
REMARK  238  A    between atoms: _566  and  _567
REMARK  239  A    between atoms: _567  and  _568
REMARK  240  A    between atoms: _570  and  _572
REMARK  241  A    between atoms: _572  and  _573
REMARK  242  A    between atoms: _572  and  _575
REMARK  243  A    between atoms: _575  and  _576
REMARK  244  A    between atoms: _579  and  _581
REMARK  245  A    between atoms: _581  and  _582
REMARK  246  A    between atoms: _581  and  _584
REMARK  247  A    between atoms: _584  and  _585
REMARK  248  A    between atoms: _589  and  _590
REMARK  249  A    between atoms: _595  and  _597
REMARK  250  A    between atoms: _597  and  _598
REMARK  251  A    between atoms: _597  and  _600
REMARK  252  A    between atoms: _600  and  _601
REMARK  253  A    between atoms: _603  and  _605
REMARK  254  A    between atoms: _605  and  _606
REMARK  255  A    between atoms: _608  and  _610
REMARK  256  A    between atoms: _610  and  _611
REMARK  257  A    between atoms: _610  and  _613
REMARK  258  A    between atoms: _613  and  _614
REMARK  259  A    between atoms: _617  and  _619
REMARK  260  A    between atoms: _619  and  _620
REMARK  261  A    between atoms: _619  and  _622
REMARK  262  A    between atoms: _622  and  _623
REMARK  263  A    between atoms: _626  and  _628
REMARK  264  A    between atoms: _628  and  _629
REMARK  265  A    between atoms: _631  and  _633
REMARK  266  A    between atoms: _633  and  _634
REMARK  267  A    between atoms: _633  and  _636
REMARK  268  A    between atoms: _636  and  _637
REMARK                            x       y       z     vdW  Elec       q    Type
REMARK                         _______ _______ _______ _____ _____    ______ ____
ROOT
ATOM      1  C   THR A   1      14.778  90.124   1.331  0.00  0.00    +0.241 C 
ATOM      2  O   THR A   1      14.994  89.050   1.882  0.00  0.00    -0.274 OA
ATOM      3  N   PHE A   2      13.547  90.624   1.367  0.00  0.00    -0.298 N 
ATOM      4  H   PHE A   2      13.292  91.475   0.826  0.00  0.00    +0.150 HD
ENDROOT
BRANCH   1   5
ATOM      5  CA  THR A   1      15.911  90.789   0.571  0.00  0.00    +0.172 C 
BRANCH   5   6
ATOM      6  N   THR A   1      15.630  91.234  -0.793  0.00  0.00    -0.236 NA
ATOM      7  H   THR A   1      15.941  92.185  -1.077  0.00  0.00    +0.142 HD
ENDBRANCH   5   6
BRANCH   5   8
ATOM      8  CB  THR A   1      16.498  92.016   1.373  0.00  0.00    +0.135 C 
ATOM      9  CG2 THR A   1      15.697  93.277   1.119  0.00  0.00    +0.034 C 
BRANCH   8  10
ATOM     10  OG1 THR A   1      16.483  91.740   2.766  0.00  0.00    -0.383 OA
ATOM     11  HG1 THR A   1      16.853  92.515   3.259  0.00  0.00    +0.210 HD
ENDBRANCH   8  10
ENDBRANCH   5   8
ENDBRANCH   1   5
BRANCH   3  12
ATOM     12  CA  PHE A   2      12.587  89.944   2.180  0.00  0.00    +0.141 C 
BRANCH  12  13
ATOM     13  C   PHE A   2      11.974  88.770   1.476  0.00  0.00    +0.227 C 
ATOM     14  O   PHE A   2      11.364  87.962   2.163  0.00  0.00    -0.286 OA
ENDBRANCH  12  13
BRANCH  12  15
ATOM     15  CB  PHE A   2      11.504  90.911   2.672  0.00  0.00    +0.054 C 
BRANCH  15  16
ATOM     16  CG  PHE A   2      12.100  91.717   3.831  0.00  0.00    -0.020 A 
ATOM     17  CD2 PHE A   2      12.703  91.072   4.894  0.00  0.00    -0.004 A 
ATOM     18  CE2 PHE A   2      13.317  91.778   5.895  0.00  0.00    -0.000 A 
ATOM     19  CZ  PHE A   2      13.328  93.147   5.844  0.00  0.00    -0.000 A 
ATOM     20  CE1 PHE A   2      12.724  93.790   4.793  0.00  0.00    -0.000 A 
ATOM     21  CD1 PHE A   2      12.104  93.090   3.782  0.00  0.00    -0.004 A 
ENDBRANCH  15  16
ENDBRANCH  12  15
ENDBRANCH   3  12
TORSDOF 8
REMARK  Name = ../refined-set-2016/1lyb/1lyb_pocket.pdb
REMARK  268 active torsions:
REMARK  status: ('A' for Active; 'I' for Inactive)
REMARK    1  A    between atoms: _1  and  _3
REMARK    2  A    between atoms: _3  and  _4
REMARK    3  A    between atoms: _3  and  _6
REMARK    4  A    between atoms: _6  and  _7
REMARK    5  A    between atoms: _7  and  _8
REMARK    6  A    between atoms: _10  and  _12
REMARK    7  A    between atoms: _12  and  _13
REMARK    8  A    between atoms: _12  and  _15
REMARK    9  A    between atoms: _15  and  _16
REMARK   10  A    between atoms: _19  and  _21
REMARK   11  A    between atoms: _21  and  _22
REMARK   12  A    between atoms: _25  and  _27
REMARK   13  A    between atoms: _27  and  _28
REMARK   14  A    between atoms: _27  and  _30
REMARK   15  A    between atoms: _30  and  _31
REMARK   16  A    between atoms: _31  and  _32
REMARK   17  A    between atoms: _37  and  _39
REMARK   18  A    between atoms: _39  and  _40
REMARK   19  A    between atoms: _39  and  _42
REMARK   20  A    between atoms: _42  and  _43
REMARK   21  A    between atoms: _48  and  _49
REMARK   22  A    between atoms: _51  and  _53
REMARK   23  A    between atoms: _53  and  _54
REMARK   24  A    between atoms: _53  and  _56
REMARK   25  A    between atoms: _59  and  _61
REMARK   26  A    between atoms: _61  and  _62
REMARK   27  A    between atoms: _61  and  _64
REMARK   28  A    between atoms: _67  and  _69
REMARK   29  A    between atoms: _69  and  _70
REMARK   30  A    between atoms: _69  and  _72
REMARK   31  A    between atoms: _72  and  _73
REMARK   32  A    between atoms: _79  and  _81
REMARK   33  A    between atoms: _81  and  _82
REMARK   34  A    between atoms: _81  and  _84
REMARK   35  A    between atoms: _84  and  _85
REMARK   36  A    between atoms: _88  and  _90
REMARK   37  A    between atoms: _90  and  _91
REMARK   38  A    between atoms: _90  and  _93
REMARK   39  A    between atoms: _93  and  _94
REMARK   40  A    between atoms: _97  and  _99
REMARK   41  A    between atoms: _99  and  _100
REMARK   42  A    between atoms: _102  and  _104
REMARK   43  A    between atoms: _104  and  _105
REMARK   44  A    between atoms: _104  and  _107
REMARK   45  A    between atoms: _107  and  _108
REMARK   46  A    between atoms: _110  and  _112
REMARK   47  A    between atoms: _112  and  _113
REMARK   48  A    between atoms: _112  and  _115
REMARK   49  A    between atoms: _115  and  _116
REMARK   50  A    between atoms: _118  and  _120
REMARK   51  A    between atoms: _120  and  _121
REMARK   52  A    between atoms: _120  and  _123
REMARK   53  A    between atoms: _123  and  _124
REMARK   54  A    between atoms: _129  and  _131
REMARK   55  A    between atoms: _131  and  _132
REMARK   56  A    between atoms: _131  and  _134
REMARK   57  A    between atoms: _134  and  _135
REMARK   58  A    between atoms: _145  and  _147
REMARK   59  A    between atoms: _147  and  _148
REMARK   60  A    between atoms: _147  and  _150
REMARK   61  A    between atoms: _150  and  _151
REMARK   62  A    between atoms: _154  and  _156
REMARK   63  A    between atoms: _156  and  _157
REMARK   64  A    between atoms: _156  and  _159
REMARK   65  A    between atoms: _159  and  _160
REMARK   66  A    between atoms: _163  and  _165
REMARK   67  A    between atoms: _165  and  _166
REMARK   68  A    between atoms: _165  and  _168
REMARK   69  A    between atoms: _168  and  _169
REMARK   70  A    between atoms: _174  and  _176
REMARK   71  A    between atoms: _176  and  _177
REMARK   72  A    between atoms: _176  and  _179
REMARK   73  A    between atoms: _179  and  _180
REMARK   74  A    between atoms: _185  and  _186
REMARK   75  A    between atoms: _188  and  _190
REMARK   76  A    between atoms: _190  and  _191
REMARK   77  A    between atoms: _193  and  _195
REMARK   78  A    between atoms: _195  and  _196
REMARK   79  A    between atoms: _195  and  _198
REMARK   80  A    between atoms: _198  and  _199
REMARK   81  A    between atoms: _201  and  _203
REMARK   82  A    between atoms: _203  and  _204
REMARK   83  A    between atoms: _206  and  _208
REMARK   84  A    between atoms: _208  and  _209
REMARK   85  A    between atoms: _208  and  _211
REMARK   86  A    between atoms: _211  and  _212
REMARK   87  A    between atoms: _214  and  _216
REMARK   88  A    between atoms: _216  and  _217
REMARK   89  A    between atoms: _216  and  _219
REMARK   90  A    between atoms: _219  and  _220
REMARK   91  A    between atoms: _223  and  _225
REMARK   92  A    between atoms: _225  and  _226
REMARK   93  A    between atoms: _225  and  _228
REMARK   94  A    between atoms: _228  and  _229
REMARK   95  A    between atoms: _232  and  _234
REMARK   96  A    between atoms: _234  and  _235
REMARK   97  A    between atoms: _234  and  _237
REMARK   98  A    between atoms: _237  and  _238
REMARK   99  A    between atoms: _244  and  _246
REMARK  100  A    between atoms: _246  and  _247
REMARK  101  A    between atoms: _250  and  _252
REMARK  102  A    between atoms: _252  and  _253
REMARK  103  A    between atoms: _256  and  _258
REMARK  104  A    between atoms: _258  and  _259
REMARK  105  A    between atoms: _258  and  _261
REMARK  106  A    between atoms: _261  and  _262
REMARK  107  A    between atoms: _262  and  _263
REMARK  108  A    between atoms: _263  and  _264
REMARK  109  A    between atoms: _264  and  _265
REMARK  110  A    between atoms: _269  and  _271
REMARK  111  A    between atoms: _271  and  _272
REMARK  112  A    between atoms: _271  and  _274
REMARK  113  A    between atoms: _274  and  _275
REMARK  114  A    between atoms: _281  and  _283
REMARK  115  A    between atoms: _283  and  _284
REMARK  116  A    between atoms: _286  and  _288
REMARK  117  A    between atoms: _288  and  _289
REMARK  118  A    between atoms: _288  and  _291
REMARK  119  A    between atoms: _291  and  _292
REMARK  120  A    between atoms: _295  and  _297
REMARK  121  A    between atoms: _297  and  _298
REMARK  122  A    between atoms: _297  and  _300
REMARK  123  A    between atoms: _300  and  _301
REMARK  124  A    between atoms: _304  and  _306
REMARK  125  A    between atoms: _306  and  _307
REMARK  126  A    between atoms: _306  and  _309
REMARK  127  A    between atoms: _309  and  _310
REMARK  128  A    between atoms: _310  and  _311
REMARK  129  A    between atoms: _313  and  _315
REMARK  130  A    between atoms: _315  and  _316
REMARK  131  A    between atoms: _319  and  _321
REMARK  132  A    between atoms: _321  and  _322
REMARK  133  A    between atoms: _321  and  _324
REMARK  134  A    between atoms: _324  and  _325
REMARK  135  A    between atoms: _328  and  _330
REMARK  136  A    between atoms: _330  and  _331
REMARK  137  A    between atoms: _330  and  _333
REMARK  138  A    between atoms: _333  and  _334
REMARK  139  A    between atoms: _336  and  _338
REMARK  140  A    between atoms: _338  and  _339
REMARK  141  A    between atoms: _338  and  _341
REMARK  142  A    between atoms: _344  and  _346
REMARK  143  A    between atoms: _346  and  _347
REMARK  144  A    between atoms: _346  and  _349
REMARK  145  A    between atoms: _349  and  _350
REMARK  146  A    between atoms: _350  and  _351
REMARK  147  A    between atoms: _351  and  _352
REMARK  148  A    between atoms: _361  and  _363
REMARK  149  A    between atoms: _363  and  _364
REMARK  150  A    between atoms: _363  and  _366
REMARK  151  A    between atoms: _366  and  _367
REMARK  152  A    between atoms: _367  and  _368
REMARK  153  A    between atoms: _368  and  _369
REMARK  154  A    between atoms: _378  and  _380
REMARK  155  A    between atoms: _380  and  _381
REMARK  156  A    between atoms: _380  and  _383
REMARK  157  A    between atoms: _383  and  _384
REMARK  158  A    between atoms: _389  and  _390
REMARK  159  A    between atoms: _392  and  _394
REMARK  160  A    between atoms: _394  and  _395
REMARK  161  A    between atoms: _394  and  _397
REMARK  162  A    between atoms: _397  and  _398
REMARK  163  A    between atoms: _398  and  _399
REMARK  164  A    between atoms: _404  and  _406
REMARK  165  A    between atoms: _406  and  _407
REMARK  166  A    between atoms: _406  and  _409
REMARK  167  A    between atoms: _409  and  _410
REMARK  168  A    between atoms: _413  and  _415
REMARK  169  A    between atoms: _415  and  _416
REMARK  170  A    between atoms: _415  and  _418
REMARK  171  A    between atoms: _421  and  _423
REMARK  172  A    between atoms: _423  and  _424
REMARK  173  A    between atoms: _423  and  _426
REMARK  174  A    between atoms: _426  and  _427
REMARK  175  A    between atoms: _430  and  _432
REMARK  176  A    between atoms: _432  and  _433
REMARK  177  A    between atoms: _432  and  _435
REMARK  178  A    between atoms: _435  and  _436
REMARK  179  A    between atoms: _439  and  _441
REMARK  180  A    between atoms: _441  and  _442
REMARK  181  A    between atoms: _444  and  _446
REMARK  182  A    between atoms: _446  and  _447
REMARK  183  A    between atoms: _446  and  _449
REMARK  184  A    between atoms: _449  and  _450
REMARK  185  A    between atoms: _453  and  _455
REMARK  186  A    between atoms: _455  and  _456
REMARK  187  A    between atoms: _455  and  _458
REMARK  188  A    between atoms: _458  and  _459
REMARK  189  A    between atoms: _461  and  _463
REMARK  190  A    between atoms: _463  and  _464
REMARK  191  A    between atoms: _463  and  _466
REMARK  192  A    between atoms: _466  and  _467
REMARK  193  A    between atoms: _470  and  _472
REMARK  194  A    between atoms: _472  and  _473
REMARK  195  A    between atoms: _472  and  _475
REMARK  196  A    between atoms: _475  and  _476
REMARK  197  A    between atoms: _476  and  _477
REMARK  198  A    between atoms: _479  and  _481
REMARK  199  A    between atoms: _481  and  _482
REMARK  200  A    between atoms: _481  and  _484
REMARK  201  A    between atoms: _487  and  _489
REMARK  202  A    between atoms: _489  and  _490
REMARK  203  A    between atoms: _489  and  _492
REMARK  204  A    between atoms: _492  and  _493
REMARK  205  A    between atoms: _496  and  _498
REMARK  206  A    between atoms: _498  and  _499
REMARK  207  A    between atoms: _498  and  _501
REMARK  208  A    between atoms: _501  and  _502
REMARK  209  A    between atoms: _502  and  _503
REMARK  210  A    between atoms: _508  and  _510
REMARK  211  A    between atoms: _510  and  _511
REMARK  212  A    between atoms: _510  and  _513
REMARK  213  A    between atoms: _513  and  _514
REMARK  214  A    between atoms: _514  and  _515
REMARK  215  A    between atoms: _518  and  _520
REMARK  216  A    between atoms: _520  and  _521
REMARK  217  A    between atoms: _520  and  _523
REMARK  218  A    between atoms: _523  and  _524
REMARK  219  A    between atoms: _527  and  _529
REMARK  220  A    between atoms: _529  and  _530
REMARK  221  A    between atoms: _529  and  _532
REMARK  222  A    between atoms: _535  and  _537
REMARK  223  A    between atoms: _537  and  _538
REMARK  224  A    between atoms: _537  and  _540
REMARK  225  A    between atoms: _540  and  _541
REMARK  226  A    between atoms: _544  and  _546
REMARK  227  A    between atoms: _546  and  _547
REMARK  228  A    between atoms: _546  and  _549
REMARK  229  A    between atoms: _549  and  _550
REMARK  230  A    between atoms: _552  and  _554
REMARK  231  A    between atoms: _554  and  _555
REMARK  232  A    between atoms: _554  and  _557
REMARK  233  A    between atoms: _557  and  _558
REMARK  234  A    between atoms: _558  and  _559
REMARK  235  A    between atoms: _561  and  _563
REMARK  236  A    between atoms: _563  and  _564
REMARK  237  A    between atoms: _563  and  _566
REMARK  238  A    between atoms: _566  and  _567
REMARK  239  A    between atoms: _567  and  _568
REMARK  240  A    between atoms: _570  and  _572
REMARK  241  A    between atoms: _572  and  _573
REMARK  242  A    between atoms: _572  and  _575
REMARK  243  A    between atoms: _575  and  _576
REMARK  244  A    between atoms: _579  and  _581
REMARK  245  A    between atoms: _581  and  _582
REMARK  246  A    between atoms: _581  and  _584
REMARK  247  A    between atoms: _584  and  _585
REMARK  248  A    between atoms: _589  and  _590
REMARK  249  A    between atoms: _595  and  _597
REMARK  250  A    between atoms: _597  and  _598
REMARK  251  A    between atoms: _597  and  _600
REMARK  252  A    between atoms: _600  and  _601
REMARK  253  A    between atoms: _603  and  _605
REMARK  254  A    between atoms: _605  and  _606
REMARK  255  A    between atoms: _608  and  _610
REMARK  256  A    between atoms: _610  and  _611
REMARK  257  A    between atoms: _610  and  _613
REMARK  258  A    between atoms: _613  and  _614
REMARK  259  A    between atoms: _617  and  _619
REMARK  260  A    between atoms: _619  and  _620
REMARK  261  A    between atoms: _619  and  _622
REMARK  262  A    between atoms: _622  and  _623
REMARK  263  A    between atoms: _626  and  _628
REMARK  264  A    between atoms: _628  and  _629
REMARK  265  A    between atoms: _631  and  _633
REMARK  266  A    between atoms: _633  and  _634
REMARK  267  A    between atoms: _633  and  _636
REMARK  268  A    between atoms: _636  and  _637
REMARK                            x       y       z     vdW  Elec       q    Type
REMARK                         _______ _______ _______ _____ _____    ______ ____
ROOT
ATOM      1  CA  LYS A   3      13.506  82.426   5.850  0.00  0.00    +0.149 C 
ENDROOT
BRANCH   1   3
ATOM      2  C   ALA A   2      13.718  84.332   4.345  0.00  0.00    +0.241 C 
ATOM      3  N   LYS A   3      14.255  83.513   5.237  0.00  0.00    -0.297 N 
ATOM      4  H   LYS A   3      15.249  83.652   5.509  0.00  0.00    +0.150 HD
ATOM      5  O   ALA A   2      12.539  84.220   3.980  0.00  0.00    -0.273 OA
BRANCH   2   6
ATOM      6  CA  ALA A   2      14.632  85.444   3.839  0.00  0.00    +0.149 C 
ATOM      7  CB  ALA A   2      14.438  86.715   4.632  0.00  0.00    +0.031 C 
BRANCH   6   9
ATOM      8  C   ALA A   1      14.894  85.017   1.502  0.00  0.00    +0.238 C 
ATOM      9  N   ALA A   2      14.397  85.776   2.453  0.00  0.00    -0.297 N 
ATOM     10  H   ALA A   2      13.835  86.616   2.208  0.00  0.00    +0.150 HD
ATOM     11  O   ALA A   1      15.360  83.916   1.792  0.00  0.00    -0.274 OA
BRANCH   8  12
ATOM     12  CA  ALA A   1      14.821  85.482   0.063  0.00  0.00    +0.145 C 
ATOM     13  CB  ALA A   1      16.135  86.073  -0.339  0.00  0.00    +0.028 C 
BRANCH  12  14
ATOM     14  N   ALA A   1      13.812  86.458  -0.199  0.00  0.00    -0.238 NA
ATOM     15  H   ALA A   1      14.098  87.431  -0.430  0.00  0.00    +0.142 HD
ENDBRANCH  12  14
ENDBRANCH   8  12
ENDBRANCH   6   9
ENDBRANCH   2   6
ENDBRANCH   1   3
BRANCH   1  16
ATOM     16  C   LYS A   3      12.469  82.878   6.855  0.00  0.00    +0.241 C 
ATOM     17  N   PHE A   4      12.594  84.114   7.330  0.00  0.00    -0.298 N 
ATOM     18  H   PHE A   4      13.316  84.736   6.914  0.00  0.00    +0.150 HD
ATOM     19  O   LYS A   3      11.544  82.141   7.171  0.00  0.00    -0.273 OA
BRANCH  17  20
ATOM     20  CA  PHE A   4      11.772  84.629   8.397  0.00  0.00    +0.141 C 
BRANCH  20  21
ATOM     21  C   PHE A   4      10.616  85.441   7.854  0.00  0.00    +0.227 C 
ATOM     22  O   PHE A   4      10.753  86.106   6.818  0.00  0.00    -0.286 OA
ENDBRANCH  20  21
BRANCH  20  23
ATOM     23  CB  PHE A   4      12.651  85.480   9.329  0.00  0.00    +0.054 C 
BRANCH  23  24
ATOM     24  CG  PHE A   4      13.386  86.668   8.695  0.00  0.00    -0.020 A 
ATOM     25  CD2 PHE A   4      12.752  87.876   8.465  0.00  0.00    -0.004 A 
ATOM     26  CE2 PHE A   4      13.429  88.951   7.930  0.00  0.00    -0.000 A 
ATOM     27  CZ  PHE A   4      14.760  88.823   7.616  0.00  0.00    -0.000 A 
ATOM     28  CE1 PHE A   4      15.390  87.619   7.846  0.00  0.00    -0.000 A 
ATOM     29  CD1 PHE A   4      14.715  86.545   8.377  0.00  0.00    -0.004 A 
ENDBRANCH  23  24
ENDBRANCH  20  23
ENDBRANCH  17  20
ENDBRANCH   1  16
BRANCH   1  30
ATOM     30  CB  LYS A   3      14.462  81.483   6.544  0.00  0.00    +0.029 C 
BRANCH  30  31
ATOM     31  CG  LYS A   3      14.516  80.145   5.858  0.00  0.00    +0.000 C 
BRANCH  31  32
ATOM     32  CD  LYS A   3      15.074  80.228   4.453  0.00  0.00    -0.024 C 
BRANCH  32  33
ATOM     33  CE  LYS A   3      15.162  78.785   4.010  0.00  0.00    -0.086 C 
BRANCH  33  34
ATOM     34  NZ  LYS A   3      15.863  78.662   2.744  0.00  0.00    +0.380 N 
ATOM     35  HZ1 LYS A   3      16.828  79.036   2.846  0.00  0.00    -0.089 HD
ATOM     36  HZ2 LYS A   3      15.906  77.660   2.469  0.00  0.00    -0.089 HD
ATOM     37  HZ3 LYS A   3      15.355  79.202   2.014  0.00  0.00    -0.089 HD
ENDBRANCH  33  34
ENDBRANCH  32  33
ENDBRANCH  31  32
ENDBRANCH  30  31
ENDBRANCH   1  30
TORSDOF 15
REMARK  Name = ../refined-set-2016/1lyb/1lyb_pocket.pdb
REMARK  268 active torsions:
REMARK  status: ('A' for Active; 'I' for Inactive)
REMARK    1  A    between atoms: _1  and  _3
REMARK    2  A    between atoms: _3  and  _4
REMARK    3  A    between atoms: _3  and  _6
REMARK    4  A    between atoms: _6  and  _7
REMARK    5  A    between atoms: _7  and  _8
REMARK    6  A    between atoms: _10  and  _12
REMARK    7  A    between atoms: _12  and  _13
REMARK    8  A    between atoms: _12  and  _15
REMARK    9  A    between atoms: _15  and  _16
REMARK   10  A    between atoms: _19  and  _21
REMARK   11  A    between atoms: _21  and  _22
REMARK   12  A    between atoms: _25  and  _27
REMARK   13  A    between atoms: _27  and  _28
REMARK   14  A    between atoms: _27  and  _30
REMARK   15  A    between atoms: _30  and  _31
REMARK   16  A    between atoms: _31  and  _32
REMARK   17  A    between atoms: _37  and  _39
REMARK   18  A    between atoms: _39  and  _40
REMARK   19  A    between atoms: _39  and  _42
REMARK   20  A    between atoms: _42  and  _43
REMARK   21  A    between atoms: _48  and  _49
REMARK   22  A    between atoms: _51  and  _53
REMARK   23  A    between atoms: _53  and  _54
REMARK   24  A    between atoms: _53  and  _56
REMARK   25  A    between atoms: _59  and  _61
REMARK   26  A    between atoms: _61  and  _62
REMARK   27  A    between atoms: _61  and  _64
REMARK   28  A    between atoms: _67  and  _69
REMARK   29  A    between atoms: _69  and  _70
REMARK   30  A    between atoms: _69  and  _72
REMARK   31  A    between atoms: _72  and  _73
REMARK   32  A    between atoms: _79  and  _81
REMARK   33  A    between atoms: _81  and  _82
REMARK   34  A    between atoms: _81  and  _84
REMARK   35  A    between atoms: _84  and  _85
REMARK   36  A    between atoms: _88  and  _90
REMARK   37  A    between atoms: _90  and  _91
REMARK   38  A    between atoms: _90  and  _93
REMARK   39  A    between atoms: _93  and  _94
REMARK   40  A    between atoms: _97  and  _99
REMARK   41  A    between atoms: _99  and  _100
REMARK   42  A    between atoms: _102  and  _104
REMARK   43  A    between atoms: _104  and  _105
REMARK   44  A    between atoms: _104  and  _107
REMARK   45  A    between atoms: _107  and  _108
REMARK   46  A    between atoms: _110  and  _112
REMARK   47  A    between atoms: _112  and  _113
REMARK   48  A    between atoms: _112  and  _115
REMARK   49  A    between atoms: _115  and  _116
REMARK   50  A    between atoms: _118  and  _120
REMARK   51  A    between atoms: _120  and  _121
REMARK   52  A    between atoms: _120  and  _123
REMARK   53  A    between atoms: _123  and  _124
REMARK   54  A    between atoms: _129  and  _131
REMARK   55  A    between atoms: _131  and  _132
REMARK   56  A    between atoms: _131  and  _134
REMARK   57  A    between atoms: _134  and  _135
REMARK   58  A    between atoms: _145  and  _147
REMARK   59  A    between atoms: _147  and  _148
REMARK   60  A    between atoms: _147  and  _150
REMARK   61  A    between atoms: _150  and  _151
REMARK   62  A    between atoms: _154  and  _156
REMARK   63  A    between atoms: _156  and  _157
REMARK   64  A    between atoms: _156  and  _159
REMARK   65  A    between atoms: _159  and  _160
REMARK   66  A    between atoms: _163  and  _165
REMARK   67  A    between atoms: _165  and  _166
REMARK   68  A    between atoms: _165  and  _168
REMARK   69  A    between atoms: _168  and  _169
REMARK   70  A    between atoms: _174  and  _176
REMARK   71  A    between atoms: _176  and  _177
REMARK   72  A    between atoms: _176  and  _179
REMARK   73  A    between atoms: _179  and  _180
REMARK   74  A    between atoms: _185  and  _186
REMARK   75  A    between atoms: _188  and  _190
REMARK   76  A    between atoms: _190  and  _191
REMARK   77  A    between atoms: _193  and  _195
REMARK   78  A    between atoms: _195  and  _196
REMARK   79  A    between atoms: _195  and  _198
REMARK   80  A    between atoms: _198  and  _199
REMARK   81  A    between atoms: _201  and  _203
REMARK   82  A    between atoms: _203  and  _204
REMARK   83  A    between atoms: _206  and  _208
REMARK   84  A    between atoms: _208  and  _209
REMARK   85  A    between atoms: _208  and  _211
REMARK   86  A    between atoms: _211  and  _212
REMARK   87  A    between atoms: _214  and  _216
REMARK   88  A    between atoms: _216  and  _217
REMARK   89  A    between atoms: _216  and  _219
REMARK   90  A    between atoms: _219  and  _220
REMARK   91  A    between atoms: _223  and  _225
REMARK   92  A    between atoms: _225  and  _226
REMARK   93  A    between atoms: _225  and  _228
REMARK   94  A    between atoms: _228  and  _229
REMARK   95  A    between atoms: _232  and  _234
REMARK   96  A    between atoms: _234  and  _235
REMARK   97  A    between atoms: _234  and  _237
REMARK   98  A    between atoms: _237  and  _238
REMARK   99  A    between atoms: _244  and  _246
REMARK  100  A    between atoms: _246  and  _247
REMARK  101  A    between atoms: _250  and  _252
REMARK  102  A    between atoms: _252  and  _253
REMARK  103  A    between atoms: _256  and  _258
REMARK  104  A    between atoms: _258  and  _259
REMARK  105  A    between atoms: _258  and  _261
REMARK  106  A    between atoms: _261  and  _262
REMARK  107  A    between atoms: _262  and  _263
REMARK  108  A    between atoms: _263  and  _264
REMARK  109  A    between atoms: _264  and  _265
REMARK  110  A    between atoms: _269  and  _271
REMARK  111  A    between atoms: _271  and  _272
REMARK  112  A    between atoms: _271  and  _274
REMARK  113  A    between atoms: _274  and  _275
REMARK  114  A    between atoms: _281  and  _283
REMARK  115  A    between atoms: _283  and  _284
REMARK  116  A    between atoms: _286  and  _288
REMARK  117  A    between atoms: _288  and  _289
REMARK  118  A    between atoms: _288  and  _291
REMARK  119  A    between atoms: _291  and  _292
REMARK  120  A    between atoms: _295  and  _297
REMARK  121  A    between atoms: _297  and  _298
REMARK  122  A    between atoms: _297  and  _300
REMARK  123  A    between atoms: _300  and  _301
REMARK  124  A    between atoms: _304  and  _306
REMARK  125  A    between atoms: _306  and  _307
REMARK  126  A    between atoms: _306  and  _309
REMARK  127  A    between atoms: _309  and  _310
REMARK  128  A    between atoms: _310  and  _311
REMARK  129  A    between atoms: _313  and  _315
REMARK  130  A    between atoms: _315  and  _316
REMARK  131  A    between atoms: _319  and  _321
REMARK  132  A    between atoms: _321  and  _322
REMARK  133  A    between atoms: _321  and  _324
REMARK  134  A    between atoms: _324  and  _325
REMARK  135  A    between atoms: _328  and  _330
REMARK  136  A    between atoms: _330  and  _331
REMARK  137  A    between atoms: _330  and  _333
REMARK  138  A    between atoms: _333  and  _334
REMARK  139  A    between atoms: _336  and  _338
REMARK  140  A    between atoms: _338  and  _339
REMARK  141  A    between atoms: _338  and  _341
REMARK  142  A    between atoms: _344  and  _346
REMARK  143  A    between atoms: _346  and  _347
REMARK  144  A    between atoms: _346  and  _349
REMARK  145  A    between atoms: _349  and  _350
REMARK  146  A    between atoms: _350  and  _351
REMARK  147  A    between atoms: _351  and  _352
REMARK  148  A    between atoms: _361  and  _363
REMARK  149  A    between atoms: _363  and  _364
REMARK  150  A    between atoms: _363  and  _366
REMARK  151  A    between atoms: _366  and  _367
REMARK  152  A    between atoms: _367  and  _368
REMARK  153  A    between atoms: _368  and  _369
REMARK  154  A    between atoms: _378  and  _380
REMARK  155  A    between atoms: _380  and  _381
REMARK  156  A    between atoms: _380  and  _383
REMARK  157  A    between atoms: _383  and  _384
REMARK  158  A    between atoms: _389  and  _390
REMARK  159  A    between atoms: _392  and  _394
REMARK  160  A    between atoms: _394  and  _395
REMARK  161  A    between atoms: _394  and  _397
REMARK  162  A    between atoms: _397  and  _398
REMARK  163  A    between atoms: _398  and  _399
REMARK  164  A    between atoms: _404  and  _406
REMARK  165  A    between atoms: _406  and  _407
REMARK  166  A    between atoms: _406  and  _409
REMARK  167  A    between atoms: _409  and  _410
REMARK  168  A    between atoms: _413  and  _415
REMARK  169  A    between atoms: _415  and  _416
REMARK  170  A    between atoms: _415  and  _418
REMARK  171  A    between atoms: _421  and  _423
REMARK  172  A    between atoms: _423  and  _424
REMARK  173  A    between atoms: _423  and  _426
REMARK  174  A    between atoms: _426  and  _427
REMARK  175  A    between atoms: _430  and  _432
REMARK  176  A    between atoms: _432  and  _433
REMARK  177  A    between atoms: _432  and  _435
REMARK  178  A    between atoms: _435  and  _436
REMARK  179  A    between atoms: _439  and  _441
REMARK  180  A    between atoms: _441  and  _442
REMARK  181  A    between atoms: _444  and  _446
REMARK  182  A    between atoms: _446  and  _447
REMARK  183  A    between atoms: _446  and  _449
REMARK  184  A    between atoms: _449  and  _450
REMARK  185  A    between atoms: _453  and  _455
REMARK  186  A    between atoms: _455  and  _456
REMARK  187  A    between atoms: _455  and  _458
REMARK  188  A    between atoms: _458  and  _459
REMARK  189  A    between atoms: _461  and  _463
REMARK  190  A    between atoms: _463  and  _464
REMARK  191  A    between atoms: _463  and  _466
REMARK  192  A    between atoms: _466  and  _467
REMARK  193  A    between atoms: _470  and  _472
REMARK  194  A    between atoms: _472  and  _473
REMARK  195  A    between atoms: _472  and  _475
REMARK  196  A    between atoms: _475  and  _476
REMARK  197  A    between atoms: _476  and  _477
REMARK  198  A    between atoms: _479  and  _481
REMARK  199  A    between atoms: _481  and  _482
REMARK  200  A    between atoms: _481  and  _484
REMARK  201  A    between atoms: _487  and  _489
REMARK  202  A    between atoms: _489  and  _490
REMARK  203  A    between atoms: _489  and  _492
REMARK  204  A    between atoms: _492  and  _493
REMARK  205  A    between atoms: _496  and  _498
REMARK  206  A    between atoms: _498  and  _499
REMARK  207  A    between atoms: _498  and  _501
REMARK  208  A    between atoms: _501  and  _502
REMARK  209  A    between atoms: _502  and  _503
REMARK  210  A    between atoms: _508  and  _510
REMARK  211  A    between atoms: _510  and  _511
REMARK  212  A    between atoms: _510  and  _513
REMARK  213  A    between atoms: _513  and  _514
REMARK  214  A    between atoms: _514  and  _515
REMARK  215  A    between atoms: _518  and  _520
REMARK  216  A    between atoms: _520  and  _521
REMARK  217  A    between atoms: _520  and  _523
REMARK  218  A    between atoms: _523  and  _524
REMARK  219  A    between atoms: _527  and  _529
REMARK  220  A    between atoms: _529  and  _530
REMARK  221  A    between atoms: _529  and  _532
REMARK  222  A    between atoms: _535  and  _537
REMARK  223  A    between atoms: _537  and  _538
REMARK  224  A    between atoms: _537  and  _540
REMARK  225  A    between atoms: _540  and  _541
REMARK  226  A    between atoms: _544  and  _546
REMARK  227  A    between atoms: _546  and  _547
REMARK  228  A    between atoms: _546  and  _549
REMARK  229  A    between atoms: _549  and  _550
REMARK  230  A    between atoms: _552  and  _554
REMARK  231  A    between atoms: _554  and  _555
REMARK  232  A    between atoms: _554  and  _557
REMARK  233  A    between atoms: _557  and  _558
REMARK  234  A    between atoms: _558  and  _559
REMARK  235  A    between atoms: _561  and  _563
REMARK  236  A    between atoms: _563  and  _564
REMARK  237  A    between atoms: _563  and  _566
REMARK  238  A    between atoms: _566  and  _567
REMARK  239  A    between atoms: _567  and  _568
REMARK  240  A    between atoms: _570  and  _572
REMARK  241  A    between atoms: _572  and  _573
REMARK  242  A    between atoms: _572  and  _575
REMARK  243  A    between atoms: _575  and  _576
REMARK  244  A    between atoms: _579  and  _581
REMARK  245  A    between atoms: _581  and  _582
REMARK  246  A    between atoms: _581  and  _584
REMARK  247  A    between atoms: _584  and  _585
REMARK  248  A    between atoms: _589  and  _590
REMARK  249  A    between atoms: _595  and  _597
REMARK  250  A    between atoms: _597  and  _598
REMARK  251  A    between atoms: _597  and  _600
REMARK  252  A    between atoms: _600  and  _601
REMARK  253  A    between atoms: _603  and  _605
REMARK  254  A    between atoms: _605  and  _606
REMARK  255  A    between atoms: _608  and  _610
REMARK  256  A    between atoms: _610  and  _611
REMARK  257  A    between atoms: _610  and  _613
REMARK  258  A    between atoms: _613  and  _614
REMARK  259  A    between atoms: _617  and  _619
REMARK  260  A    between atoms: _619  and  _620
REMARK  261  A    between atoms: _619  and  _622
REMARK  262  A    between atoms: _622  and  _623
REMARK  263  A    between atoms: _626  and  _628
REMARK  264  A    between atoms: _628  and  _629
REMARK  265  A    between atoms: _631  and  _633
REMARK  266  A    between atoms: _633  and  _634
REMARK  267  A    between atoms: _633  and  _636
REMARK  268  A    between atoms: _636  and  _637
REMARK                            x       y       z     vdW  Elec       q    Type
REMARK                         _______ _______ _______ _____ _____    ______ ____
ROOT
ATOM      1  CA  ILE A   2      11.223  90.861  12.878  0.00  0.00    +0.148 C 
ENDROOT
BRANCH   1   3
ATOM      2  C   GLY A   1      10.122  89.377  11.264  0.00  0.00    +0.240 C 
ATOM      3  N   ILE A   2      10.109  90.474  12.023  0.00  0.00    -0.297 N 
ATOM      4  H   ILE A   2       9.265  91.081  12.003  0.00  0.00    +0.150 HD
ATOM      5  O   GLY A   1      11.021  88.529  11.334  0.00  0.00    -0.274 OA
BRANCH   2   6
ATOM      6  CA  GLY A   1       8.951  89.200  10.336  0.00  0.00    +0.169 C 
BRANCH   6   7
ATOM      7  N   GLY A   1       8.855  87.846   9.858  0.00  0.00    -0.236 NA
ATOM      8  H   GLY A   1       9.161  87.063  10.470  0.00  0.00    +0.142 HD
ENDBRANCH   6   7
ENDBRANCH   2   6
ENDBRANCH   1   3
BRANCH   1   9
ATOM      9  C   ILE A   2      10.633  91.361  14.188  0.00  0.00    +0.241 C 
ATOM     10  N   LEU A   3      11.205  91.006  15.330  0.00  0.00    -0.298 N 
ATOM     11  H   LEU A   3      12.033  90.377  15.299  0.00  0.00    +0.150 HD
ATOM     12  O   ILE A   2       9.578  91.991  14.174  0.00  0.00    -0.273 OA
BRANCH  10  13
ATOM     13  CA  LEU A   3      10.727  91.456  16.614  0.00  0.00    +0.137 C 
BRANCH  13  14
ATOM     14  C   LEU A   3      11.987  92.103  17.193  0.00  0.00    +0.227 C 
ATOM     15  O   LEU A   3      12.964  91.431  17.579  0.00  0.00    -0.286 OA
ENDBRANCH  13  14
BRANCH  13  16
ATOM     16  CB  LEU A   3      10.259  90.260  17.434  0.00  0.00    +0.028 C 
BRANCH  16  17
ATOM     17  CG  LEU A   3       9.656  90.478  18.800  0.00  0.00    +0.002 C 
ATOM     18  CD2 LEU A   3      10.711  90.761  19.826  0.00  0.00    +0.000 C 
ATOM     19  CD1 LEU A   3       8.970  89.204  19.240  0.00  0.00    +0.000 C 
ENDBRANCH  16  17
ENDBRANCH  13  16
ENDBRANCH  10  13
ENDBRANCH   1   9
BRANCH   1  20
ATOM     20  CB  ILE A   2      12.049  91.960  12.127  0.00  0.00    +0.027 C 
ATOM     21  CG2 ILE A   2      13.151  92.524  13.012  0.00  0.00    +0.002 C 
BRANCH  20  22
ATOM     22  CG1 ILE A   2      12.691  91.339  10.884  0.00  0.00    +0.002 C 
ATOM     23  CD1 ILE A   2      13.176  92.297   9.812  0.00  0.00    +0.000 C 
ENDBRANCH  20  22
ENDBRANCH   1  20
TORSDOF 10
REMARK  Name = ../refined-set-2016/1lyb/1lyb_pocket.pdb
REMARK  268 active torsions:
REMARK  status: ('A' for Active; 'I' for Inactive)
REMARK    1  A    between atoms: _1  and  _3
REMARK    2  A    between atoms: _3  and  _4
REMARK    3  A    between atoms: _3  and  _6
REMARK    4  A    between atoms: _6  and  _7
REMARK    5  A    between atoms: _7  and  _8
REMARK    6  A    between atoms: _10  and  _12
REMARK    7  A    between atoms: _12  and  _13
REMARK    8  A    between atoms: _12  and  _15
REMARK    9  A    between atoms: _15  and  _16
REMARK   10  A    between atoms: _19  and  _21
REMARK   11  A    between atoms: _21  and  _22
REMARK   12  A    between atoms: _25  and  _27
REMARK   13  A    between atoms: _27  and  _28
REMARK   14  A    between atoms: _27  and  _30
REMARK   15  A    between atoms: _30  and  _31
REMARK   16  A    between atoms: _31  and  _32
REMARK   17  A    between atoms: _37  and  _39
REMARK   18  A    between atoms: _39  and  _40
REMARK   19  A    between atoms: _39  and  _42
REMARK   20  A    between atoms: _42  and  _43
REMARK   21  A    between atoms: _48  and  _49
REMARK   22  A    between atoms: _51  and  _53
REMARK   23  A    between atoms: _53  and  _54
REMARK   24  A    between atoms: _53  and  _56
REMARK   25  A    between atoms: _59  and  _61
REMARK   26  A    between atoms: _61  and  _62
REMARK   27  A    between atoms: _61  and  _64
REMARK   28  A    between atoms: _67  and  _69
REMARK   29  A    between atoms: _69  and  _70
REMARK   30  A    between atoms: _69  and  _72
REMARK   31  A    between atoms: _72  and  _73
REMARK   32  A    between atoms: _79  and  _81
REMARK   33  A    between atoms: _81  and  _82
REMARK   34  A    between atoms: _81  and  _84
REMARK   35  A    between atoms: _84  and  _85
REMARK   36  A    between atoms: _88  and  _90
REMARK   37  A    between atoms: _90  and  _91
REMARK   38  A    between atoms: _90  and  _93
REMARK   39  A    between atoms: _93  and  _94
REMARK   40  A    between atoms: _97  and  _99
REMARK   41  A    between atoms: _99  and  _100
REMARK   42  A    between atoms: _102  and  _104
REMARK   43  A    between atoms: _104  and  _105
REMARK   44  A    between atoms: _104  and  _107
REMARK   45  A    between atoms: _107  and  _108
REMARK   46  A    between atoms: _110  and  _112
REMARK   47  A    between atoms: _112  and  _113
REMARK   48  A    between atoms: _112  and  _115
REMARK   49  A    between atoms: _115  and  _116
REMARK   50  A    between atoms: _118  and  _120
REMARK   51  A    between atoms: _120  and  _121
REMARK   52  A    between atoms: _120  and  _123
REMARK   53  A    between atoms: _123  and  _124
REMARK   54  A    between atoms: _129  and  _131
REMARK   55  A    between atoms: _131  and  _132
REMARK   56  A    between atoms: _131  and  _134
REMARK   57  A    between atoms: _134  and  _135
REMARK   58  A    between atoms: _145  and  _147
REMARK   59  A    between atoms: _147  and  _148
REMARK   60  A    between atoms: _147  and  _150
REMARK   61  A    between atoms: _150  and  _151
REMARK   62  A    between atoms: _154  and  _156
REMARK   63  A    between atoms: _156  and  _157
REMARK   64  A    between atoms: _156  and  _159
REMARK   65  A    between atoms: _159  and  _160
REMARK   66  A    between atoms: _163  and  _165
REMARK   67  A    between atoms: _165  and  _166
REMARK   68  A    between atoms: _165  and  _168
REMARK   69  A    between atoms: _168  and  _169
REMARK   70  A    between atoms: _174  and  _176
REMARK   71  A    between atoms: _176  and  _177
REMARK   72  A    between atoms: _176  and  _179
REMARK   73  A    between atoms: _179  and  _180
REMARK   74  A    between atoms: _185  and  _186
REMARK   75  A    between atoms: _188  and  _190
REMARK   76  A    between atoms: _190  and  _191
REMARK   77  A    between atoms: _193  and  _195
REMARK   78  A    between atoms: _195  and  _196
REMARK   79  A    between atoms: _195  and  _198
REMARK   80  A    between atoms: _198  and  _199
REMARK   81  A    between atoms: _201  and  _203
REMARK   82  A    between atoms: _203  and  _204
REMARK   83  A    between atoms: _206  and  _208
REMARK   84  A    between atoms: _208  and  _209
REMARK   85  A    between atoms: _208  and  _211
REMARK   86  A    between atoms: _211  and  _212
REMARK   87  A    between atoms: _214  and  _216
REMARK   88  A    between atoms: _216  and  _217
REMARK   89  A    between atoms: _216  and  _219
REMARK   90  A    between atoms: _219  and  _220
REMARK   91  A    between atoms: _223  and  _225
REMARK   92  A    between atoms: _225  and  _226
REMARK   93  A    between atoms: _225  and  _228
REMARK   94  A    between atoms: _228  and  _229
REMARK   95  A    between atoms: _232  and  _234
REMARK   96  A    between atoms: _234  and  _235
REMARK   97  A    between atoms: _234  and  _237
REMARK   98  A    between atoms: _237  and  _238
REMARK   99  A    between atoms: _244  and  _246
REMARK  100  A    between atoms: _246  and  _247
REMARK  101  A    between atoms: _250  and  _252
REMARK  102  A    between atoms: _252  and  _253
REMARK  103  A    between atoms: _256  and  _258
REMARK  104  A    between atoms: _258  and  _259
REMARK  105  A    between atoms: _258  and  _261
REMARK  106  A    between atoms: _261  and  _262
REMARK  107  A    between atoms: _262  and  _263
REMARK  108  A    between atoms: _263  and  _264
REMARK  109  A    between atoms: _264  and  _265
REMARK  110  A    between atoms: _269  and  _271
REMARK  111  A    between atoms: _271  and  _272
REMARK  112  A    between atoms: _271  and  _274
REMARK  113  A    between atoms: _274  and  _275
REMARK  114  A    between atoms: _281  and  _283
REMARK  115  A    between atoms: _283  and  _284
REMARK  116  A    between atoms: _286  and  _288
REMARK  117  A    between atoms: _288  and  _289
REMARK  118  A    between atoms: _288  and  _291
REMARK  119  A    between atoms: _291  and  _292
REMARK  120  A    between atoms: _295  and  _297
REMARK  121  A    between atoms: _297  and  _298
REMARK  122  A    between atoms: _297  and  _300
REMARK  123  A    between atoms: _300  and  _301
REMARK  124  A    between atoms: _304  and  _306
REMARK  125  A    between atoms: _306  and  _307
REMARK  126  A    between atoms: _306  and  _309
REMARK  127  A    between atoms: _309  and  _310
REMARK  128  A    between atoms: _310  and  _311
REMARK  129  A    between atoms: _313  and  _315
REMARK  130  A    between atoms: _315  and  _316
REMARK  131  A    between atoms: _319  and  _321
REMARK  132  A    between atoms: _321  and  _322
REMARK  133  A    between atoms: _321  and  _324
REMARK  134  A    between atoms: _324  and  _325
REMARK  135  A    between atoms: _328  and  _330
REMARK  136  A    between atoms: _330  and  _331
REMARK  137  A    between atoms: _330  and  _333
REMARK  138  A    between atoms: _333  and  _334
REMARK  139  A    between atoms: _336  and  _338
REMARK  140  A    between atoms: _338  and  _339
REMARK  141  A    between atoms: _338  and  _341
REMARK  142  A    between atoms: _344  and  _346
REMARK  143  A    between atoms: _346  and  _347
REMARK  144  A    between atoms: _346  and  _349
REMARK  145  A    between atoms: _349  and  _350
REMARK  146  A    between atoms: _350  and  _351
REMARK  147  A    between atoms: _351  and  _352
REMARK  148  A    between atoms: _361  and  _363
REMARK  149  A    between atoms: _363  and  _364
REMARK  150  A    between atoms: _363  and  _366
REMARK  151  A    between atoms: _366  and  _367
REMARK  152  A    between atoms: _367  and  _368
REMARK  153  A    between atoms: _368  and  _369
REMARK  154  A    between atoms: _378  and  _380
REMARK  155  A    between atoms: _380  and  _381
REMARK  156  A    between atoms: _380  and  _383
REMARK  157  A    between atoms: _383  and  _384
REMARK  158  A    between atoms: _389  and  _390
REMARK  159  A    between atoms: _392  and  _394
REMARK  160  A    between atoms: _394  and  _395
REMARK  161  A    between atoms: _394  and  _397
REMARK  162  A    between atoms: _397  and  _398
REMARK  163  A    between atoms: _398  and  _399
REMARK  164  A    between atoms: _404  and  _406
REMARK  165  A    between atoms: _406  and  _407
REMARK  166  A    between atoms: _406  and  _409
REMARK  167  A    between atoms: _409  and  _410
REMARK  168  A    between atoms: _413  and  _415
REMARK  169  A    between atoms: _415  and  _416
REMARK  170  A    between atoms: _415  and  _418
REMARK  171  A    between atoms: _421  and  _423
REMARK  172  A    between atoms: _423  and  _424
REMARK  173  A    between atoms: _423  and  _426
REMARK  174  A    between atoms: _426  and  _427
REMARK  175  A    between atoms: _430  and  _432
REMARK  176  A    between atoms: _432  and  _433
REMARK  177  A    between atoms: _432  and  _435
REMARK  178  A    between atoms: _435  and  _436
REMARK  179  A    between atoms: _439  and  _441
REMARK  180  A    between atoms: _441  and  _442
REMARK  181  A    between atoms: _444  and  _446
REMARK  182  A    between atoms: _446  and  _447
REMARK  183  A    between atoms: _446  and  _449
REMARK  184  A    between atoms: _449  and  _450
REMARK  185  A    between atoms: _453  and  _455
REMARK  186  A    between atoms: _455  and  _456
REMARK  187  A    between atoms: _455  and  _458
REMARK  188  A    between atoms: _458  and  _459
REMARK  189  A    between atoms: _461  and  _463
REMARK  190  A    between atoms: _463  and  _464
REMARK  191  A    between atoms: _463  and  _466
REMARK  192  A    between atoms: _466  and  _467
REMARK  193  A    between atoms: _470  and  _472
REMARK  194  A    between atoms: _472  and  _473
REMARK  195  A    between atoms: _472  and  _475
REMARK  196  A    between atoms: _475  and  _476
REMARK  197  A    between atoms: _476  and  _477
REMARK  198  A    between atoms: _479  and  _481
REMARK  199  A    between atoms: _481  and  _482
REMARK  200  A    between atoms: _481  and  _484
REMARK  201  A    between atoms: _487  and  _489
REMARK  202  A    between atoms: _489  and  _490
REMARK  203  A    between atoms: _489  and  _492
REMARK  204  A    between atoms: _492  and  _493
REMARK  205  A    between atoms: _496  and  _498
REMARK  206  A    between atoms: _498  and  _499
REMARK  207  A    between atoms: _498  and  _501
REMARK  208  A    between atoms: _501  and  _502
REMARK  209  A    between atoms: _502  and  _503
REMARK  210  A    between atoms: _508  and  _510
REMARK  211  A    between atoms: _510  and  _511
REMARK  212  A    between atoms: _510  and  _513
REMARK  213  A    between atoms: _513  and  _514
REMARK  214  A    between atoms: _514  and  _515
REMARK  215  A    between atoms: _518  and  _520
REMARK  216  A    between atoms: _520  and  _521
REMARK  217  A    between atoms: _520  and  _523
REMARK  218  A    between atoms: _523  and  _524
REMARK  219  A    between atoms: _527  and  _529
REMARK  220  A    between atoms: _529  and  _530
REMARK  221  A    between atoms: _529  and  _532
REMARK  222  A    between atoms: _535  and  _537
REMARK  223  A    between atoms: _537  and  _538
REMARK  224  A    between atoms: _537  and  _540
REMARK  225  A    between atoms: _540  and  _541
REMARK  226  A    between atoms: _544  and  _546
REMARK  227  A    between atoms: _546  and  _547
REMARK  228  A    between atoms: _546  and  _549
REMARK  229  A    between atoms: _549  and  _550
REMARK  230  A    between atoms: _552  and  _554
REMARK  231  A    between atoms: _554  and  _555
REMARK  232  A    between atoms: _554  and  _557
REMARK  233  A    between atoms: _557  and  _558
REMARK  234  A    between atoms: _558  and  _559
REMARK  235  A    between atoms: _561  and  _563
REMARK  236  A    between atoms: _563  and  _564
REMARK  237  A    between atoms: _563  and  _566
REMARK  238  A    between atoms: _566  and  _567
REMARK  239  A    between atoms: _567  and  _568
REMARK  240  A    between atoms: _570  and  _572
REMARK  241  A    between atoms: _572  and  _573
REMARK  242  A    between atoms: _572  and  _575
REMARK  243  A    between atoms: _575  and  _576
REMARK  244  A    between atoms: _579  and  _581
REMARK  245  A    between atoms: _581  and  _582
REMARK  246  A    between atoms: _581  and  _584
REMARK  247  A    between atoms: _584  and  _585
REMARK  248  A    between atoms: _589  and  _590
REMARK  249  A    between atoms: _595  and  _597
REMARK  250  A    between atoms: _597  and  _598
REMARK  251  A    between atoms: _597  and  _600
REMARK  252  A    between atoms: _600  and  _601
REMARK  253  A    between atoms: _603  and  _605
REMARK  254  A    between atoms: _605  and  _606
REMARK  255  A    between atoms: _608  and  _610
REMARK  256  A    between atoms: _610  and  _611
REMARK  257  A    between atoms: _610  and  _613
REMARK  258  A    between atoms: _613  and  _614
REMARK  259  A    between atoms: _617  and  _619
REMARK  260  A    between atoms: _619  and  _620
REMARK  261  A    between atoms: _619  and  _622
REMARK  262  A    between atoms: _622  and  _623
REMARK  263  A    between atoms: _626  and  _628
REMARK  264  A    between atoms: _628  and  _629
REMARK  265  A    between atoms: _631  and  _633
REMARK  266  A    between atoms: _633  and  _634
REMARK  267  A    between atoms: _633  and  _636
REMARK  268  A    between atoms: _636  and  _637
REMARK                            x       y       z     vdW  Elec       q    Type
REMARK                         _______ _______ _______ _____ _____    ______ ____
ROOT
ATOM      1  C   MET A   1      15.707  95.245  21.395  0.00  0.00    +0.238 C 
ATOM      2  O   MET A   1      16.456  95.082  22.364  0.00  0.00    -0.274 OA
ATOM      3  N   ALA A   2      15.744  96.397  20.716  0.00  0.00    -0.298 N 
ATOM      4  H   ALA A   2      15.157  96.527  19.867  0.00  0.00    +0.150 HD
ENDROOT
BRANCH   3   5
ATOM      5  CA  ALA A   2      16.609  97.458  21.177  0.00  0.00    +0.137 C 
ATOM      6  CB  ALA A   2      17.217  98.185  20.022  0.00  0.00    +0.030 C 
BRANCH   5   7
ATOM      7  C   ALA A   2      15.753  98.420  21.959  0.00  0.00    +0.227 C 
ATOM      8  O   ALA A   2      14.536  98.239  22.124  0.00  0.00    -0.286 OA
ENDBRANCH   5   7
ENDBRANCH   3   5
BRANCH   1   9
ATOM      9  CA  MET A   1      14.736  94.155  20.967  0.00  0.00    +0.146 C 
BRANCH   9  10
ATOM     10  N   MET A   1      14.509  94.183  19.556  0.00  0.00    -0.238 NA
ATOM     11  H   MET A   1      15.313  94.115  18.899  0.00  0.00    +0.142 HD
ENDBRANCH   9  10
BRANCH   9  12
ATOM     12  CB  MET A   1      15.229  92.730  21.344  0.00  0.00    +0.038 C 
BRANCH  12  13
ATOM     13  CG  MET A   1      14.142  91.662  21.177  0.00  0.00    +0.060 C 
BRANCH  13  14
ATOM     14  SD  MET A   1      14.525  90.044  21.866  0.00  0.00    -0.139 S 
ATOM     15  CE  MET A   1      13.765  90.309  23.440  0.00  0.00    +0.069 C 
ENDBRANCH  13  14
ENDBRANCH  12  13
ENDBRANCH   9  12
ENDBRANCH   1   9
TORSDOF 7
REMARK  Name = ../refined-set-2016/1lyb/1lyb_pocket.pdb
REMARK  268 active torsions:
REMARK  status: ('A' for Active; 'I' for Inactive)
REMARK    1  A    between atoms: _1  and  _3
REMARK    2  A    between atoms: _3  and  _4
REMARK    3  A    between atoms: _3  and  _6
REMARK    4  A    between atoms: _6  and  _7
REMARK    5  A    between atoms: _7  and  _8
REMARK    6  A    between atoms: _10  and  _12
REMARK    7  A    between atoms: _12  and  _13
REMARK    8  A    between atoms: _12  and  _15
REMARK    9  A    between atoms: _15  and  _16
REMARK   10  A    between atoms: _19  and  _21
REMARK   11  A    between atoms: _21  and  _22
REMARK   12  A    between atoms: _25  and  _27
REMARK   13  A    between atoms: _27  and  _28
REMARK   14  A    between atoms: _27  and  _30
REMARK   15  A    between atoms: _30  and  _31
REMARK   16  A    between atoms: _31  and  _32
REMARK   17  A    between atoms: _37  and  _39
REMARK   18  A    between atoms: _39  and  _40
REMARK   19  A    between atoms: _39  and  _42
REMARK   20  A    between atoms: _42  and  _43
REMARK   21  A    between atoms: _48  and  _49
REMARK   22  A    between atoms: _51  and  _53
REMARK   23  A    between atoms: _53  and  _54
REMARK   24  A    between atoms: _53  and  _56
REMARK   25  A    between atoms: _59  and  _61
REMARK   26  A    between atoms: _61  and  _62
REMARK   27  A    between atoms: _61  and  _64
REMARK   28  A    between atoms: _67  and  _69
REMARK   29  A    between atoms: _69  and  _70
REMARK   30  A    between atoms: _69  and  _72
REMARK   31  A    between atoms: _72  and  _73
REMARK   32  A    between atoms: _79  and  _81
REMARK   33  A    between atoms: _81  and  _82
REMARK   34  A    between atoms: _81  and  _84
REMARK   35  A    between atoms: _84  and  _85
REMARK   36  A    between atoms: _88  and  _90
REMARK   37  A    between atoms: _90  and  _91
REMARK   38  A    between atoms: _90  and  _93
REMARK   39  A    between atoms: _93  and  _94
REMARK   40  A    between atoms: _97  and  _99
REMARK   41  A    between atoms: _99  and  _100
REMARK   42  A    between atoms: _102  and  _104
REMARK   43  A    between atoms: _104  and  _105
REMARK   44  A    between atoms: _104  and  _107
REMARK   45  A    between atoms: _107  and  _108
REMARK   46  A    between atoms: _110  and  _112
REMARK   47  A    between atoms: _112  and  _113
REMARK   48  A    between atoms: _112  and  _115
REMARK   49  A    between atoms: _115  and  _116
REMARK   50  A    between atoms: _118  and  _120
REMARK   51  A    between atoms: _120  and  _121
REMARK   52  A    between atoms: _120  and  _123
REMARK   53  A    between atoms: _123  and  _124
REMARK   54  A    between atoms: _129  and  _131
REMARK   55  A    between atoms: _131  and  _132
REMARK   56  A    between atoms: _131  and  _134
REMARK   57  A    between atoms: _134  and  _135
REMARK   58  A    between atoms: _145  and  _147
REMARK   59  A    between atoms: _147  and  _148
REMARK   60  A    between atoms: _147  and  _150
REMARK   61  A    between atoms: _150  and  _151
REMARK   62  A    between atoms: _154  and  _156
REMARK   63  A    between atoms: _156  and  _157
REMARK   64  A    between atoms: _156  and  _159
REMARK   65  A    between atoms: _159  and  _160
REMARK   66  A    between atoms: _163  and  _165
REMARK   67  A    between atoms: _165  and  _166
REMARK   68  A    between atoms: _165  and  _168
REMARK   69  A    between atoms: _168  and  _169
REMARK   70  A    between atoms: _174  and  _176
REMARK   71  A    between atoms: _176  and  _177
REMARK   72  A    between atoms: _176  and  _179
REMARK   73  A    between atoms: _179  and  _180
REMARK   74  A    between atoms: _185  and  _186
REMARK   75  A    between atoms: _188  and  _190
REMARK   76  A    between atoms: _190  and  _191
REMARK   77  A    between atoms: _193  and  _195
REMARK   78  A    between atoms: _195  and  _196
REMARK   79  A    between atoms: _195  and  _198
REMARK   80  A    between atoms: _198  and  _199
REMARK   81  A    between atoms: _201  and  _203
REMARK   82  A    between atoms: _203  and  _204
REMARK   83  A    between atoms: _206  and  _208
REMARK   84  A    between atoms: _208  and  _209
REMARK   85  A    between atoms: _208  and  _211
REMARK   86  A    between atoms: _211  and  _212
REMARK   87  A    between atoms: _214  and  _216
REMARK   88  A    between atoms: _216  and  _217
REMARK   89  A    between atoms: _216  and  _219
REMARK   90  A    between atoms: _219  and  _220
REMARK   91  A    between atoms: _223  and  _225
REMARK   92  A    between atoms: _225  and  _226
REMARK   93  A    between atoms: _225  and  _228
REMARK   94  A    between atoms: _228  and  _229
REMARK   95  A    between atoms: _232  and  _234
REMARK   96  A    between atoms: _234  and  _235
REMARK   97  A    between atoms: _234  and  _237
REMARK   98  A    between atoms: _237  and  _238
REMARK   99  A    between atoms: _244  and  _246
REMARK  100  A    between atoms: _246  and  _247
REMARK  101  A    between atoms: _250  and  _252
REMARK  102  A    between atoms: _252  and  _253
REMARK  103  A    between atoms: _256  and  _258
REMARK  104  A    between atoms: _258  and  _259
REMARK  105  A    between atoms: _258  and  _261
REMARK  106  A    between atoms: _261  and  _262
REMARK  107  A    between atoms: _262  and  _263
REMARK  108  A    between atoms: _263  and  _264
REMARK  109  A    between atoms: _264  and  _265
REMARK  110  A    between atoms: _269  and  _271
REMARK  111  A    between atoms: _271  and  _272
REMARK  112  A    between atoms: _271  and  _274
REMARK  113  A    between atoms: _274  and  _275
REMARK  114  A    between atoms: _281  and  _283
REMARK  115  A    between atoms: _283  and  _284
REMARK  116  A    between atoms: _286  and  _288
REMARK  117  A    between atoms: _288  and  _289
REMARK  118  A    between atoms: _288  and  _291
REMARK  119  A    between atoms: _291  and  _292
REMARK  120  A    between atoms: _295  and  _297
REMARK  121  A    between atoms: _297  and  _298
REMARK  122  A    between atoms: _297  and  _300
REMARK  123  A    between atoms: _300  and  _301
REMARK  124  A    between atoms: _304  and  _306
REMARK  125  A    between atoms: _306  and  _307
REMARK  126  A    between atoms: _306  and  _309
REMARK  127  A    between atoms: _309  and  _310
REMARK  128  A    between atoms: _310  and  _311
REMARK  129  A    between atoms: _313  and  _315
REMARK  130  A    between atoms: _315  and  _316
REMARK  131  A    between atoms: _319  and  _321
REMARK  132  A    between atoms: _321  and  _322
REMARK  133  A    between atoms: _321  and  _324
REMARK  134  A    between atoms: _324  and  _325
REMARK  135  A    between atoms: _328  and  _330
REMARK  136  A    between atoms: _330  and  _331
REMARK  137  A    between atoms: _330  and  _333
REMARK  138  A    between atoms: _333  and  _334
REMARK  139  A    between atoms: _336  and  _338
REMARK  140  A    between atoms: _338  and  _339
REMARK  141  A    between atoms: _338  and  _341
REMARK  142  A    between atoms: _344  and  _346
REMARK  143  A    between atoms: _346  and  _347
REMARK  144  A    between atoms: _346  and  _349
REMARK  145  A    between atoms: _349  and  _350
REMARK  146  A    between atoms: _350  and  _351
REMARK  147  A    between atoms: _351  and  _352
REMARK  148  A    between atoms: _361  and  _363
REMARK  149  A    between atoms: _363  and  _364
REMARK  150  A    between atoms: _363  and  _366
REMARK  151  A    between atoms: _366  and  _367
REMARK  152  A    between atoms: _367  and  _368
REMARK  153  A    between atoms: _368  and  _369
REMARK  154  A    between atoms: _378  and  _380
REMARK  155  A    between atoms: _380  and  _381
REMARK  156  A    between atoms: _380  and  _383
REMARK  157  A    between atoms: _383  and  _384
REMARK  158  A    between atoms: _389  and  _390
REMARK  159  A    between atoms: _392  and  _394
REMARK  160  A    between atoms: _394  and  _395
REMARK  161  A    between atoms: _394  and  _397
REMARK  162  A    between atoms: _397  and  _398
REMARK  163  A    between atoms: _398  and  _399
REMARK  164  A    between atoms: _404  and  _406
REMARK  165  A    between atoms: _406  and  _407
REMARK  166  A    between atoms: _406  and  _409
REMARK  167  A    between atoms: _409  and  _410
REMARK  168  A    between atoms: _413  and  _415
REMARK  169  A    between atoms: _415  and  _416
REMARK  170  A    between atoms: _415  and  _418
REMARK  171  A    between atoms: _421  and  _423
REMARK  172  A    between atoms: _423  and  _424
REMARK  173  A    between atoms: _423  and  _426
REMARK  174  A    between atoms: _426  and  _427
REMARK  175  A    between atoms: _430  and  _432
REMARK  176  A    between atoms: _432  and  _433
REMARK  177  A    between atoms: _432  and  _435
REMARK  178  A    between atoms: _435  and  _436
REMARK  179  A    between atoms: _439  and  _441
REMARK  180  A    between atoms: _441  and  _442
REMARK  181  A    between atoms: _444  and  _446
REMARK  182  A    between atoms: _446  and  _447
REMARK  183  A    between atoms: _446  and  _449
REMARK  184  A    between atoms: _449  and  _450
REMARK  185  A    between atoms: _453  and  _455
REMARK  186  A    between atoms: _455  and  _456
REMARK  187  A    between atoms: _455  and  _458
REMARK  188  A    between atoms: _458  and  _459
REMARK  189  A    between atoms: _461  and  _463
REMARK  190  A    between atoms: _463  and  _464
REMARK  191  A    between atoms: _463  and  _466
REMARK  192  A    between atoms: _466  and  _467
REMARK  193  A    between atoms: _470  and  _472
REMARK  194  A    between atoms: _472  and  _473
REMARK  195  A    between atoms: _472  and  _475
REMARK  196  A    between atoms: _475  and  _476
REMARK  197  A    between atoms: _476  and  _477
REMARK  198  A    between atoms: _479  and  _481
REMARK  199  A    between atoms: _481  and  _482
REMARK  200  A    between atoms: _481  and  _484
REMARK  201  A    between atoms: _487  and  _489
REMARK  202  A    between atoms: _489  and  _490
REMARK  203  A    between atoms: _489  and  _492
REMARK  204  A    between atoms: _492  and  _493
REMARK  205  A    between atoms: _496  and  _498
REMARK  206  A    between atoms: _498  and  _499
REMARK  207  A    between atoms: _498  and  _501
REMARK  208  A    between atoms: _501  and  _502
REMARK  209  A    between atoms: _502  and  _503
REMARK  210  A    between atoms: _508  and  _510
REMARK  211  A    between atoms: _510  and  _511
REMARK  212  A    between atoms: _510  and  _513
REMARK  213  A    between atoms: _513  and  _514
REMARK  214  A    between atoms: _514  and  _515
REMARK  215  A    between atoms: _518  and  _520
REMARK  216  A    between atoms: _520  and  _521
REMARK  217  A    between atoms: _520  and  _523
REMARK  218  A    between atoms: _523  and  _524
REMARK  219  A    between atoms: _527  and  _529
REMARK  220  A    between atoms: _529  and  _530
REMARK  221  A    between atoms: _529  and  _532
REMARK  222  A    between atoms: _535  and  _537
REMARK  223  A    between atoms: _537  and  _538
REMARK  224  A    between atoms: _537  and  _540
REMARK  225  A    between atoms: _540  and  _541
REMARK  226  A    between atoms: _544  and  _546
REMARK  227  A    between atoms: _546  and  _547
REMARK  228  A    between atoms: _546  and  _549
REMARK  229  A    between atoms: _549  and  _550
REMARK  230  A    between atoms: _552  and  _554
REMARK  231  A    between atoms: _554  and  _555
REMARK  232  A    between atoms: _554  and  _557
REMARK  233  A    between atoms: _557  and  _558
REMARK  234  A    between atoms: _558  and  _559
REMARK  235  A    between atoms: _561  and  _563
REMARK  236  A    between atoms: _563  and  _564
REMARK  237  A    between atoms: _563  and  _566
REMARK  238  A    between atoms: _566  and  _567
REMARK  239  A    between atoms: _567  and  _568
REMARK  240  A    between atoms: _570  and  _572
REMARK  241  A    between atoms: _572  and  _573
REMARK  242  A    between atoms: _572  and  _575
REMARK  243  A    between atoms: _575  and  _576
REMARK  244  A    between atoms: _579  and  _581
REMARK  245  A    between atoms: _581  and  _582
REMARK  246  A    between atoms: _581  and  _584
REMARK  247  A    between atoms: _584  and  _585
REMARK  248  A    between atoms: _589  and  _590
REMARK  249  A    between atoms: _595  and  _597
REMARK  250  A    between atoms: _597  and  _598
REMARK  251  A    between atoms: _597  and  _600
REMARK  252  A    between atoms: _600  and  _601
REMARK  253  A    between atoms: _603  and  _605
REMARK  254  A    between atoms: _605  and  _606
REMARK  255  A    between atoms: _608  and  _610
REMARK  256  A    between atoms: _610  and  _611
REMARK  257  A    between atoms: _610  and  _613
REMARK  258  A    between atoms: _613  and  _614
REMARK  259  A    between atoms: _617  and  _619
REMARK  260  A    between atoms: _619  and  _620
REMARK  261  A    between atoms: _619  and  _622
REMARK  262  A    between atoms: _622  and  _623
REMARK  263  A    between atoms: _626  and  _628
REMARK  264  A    between atoms: _628  and  _629
REMARK  265  A    between atoms: _631  and  _633
REMARK  266  A    between atoms: _633  and  _634
REMARK  267  A    between atoms: _633  and  _636
REMARK  268  A    between atoms: _636  and  _637
REMARK                            x       y       z     vdW  Elec       q    Type
REMARK                         _______ _______ _______ _____ _____    ______ ____
ROOT
ATOM      1  CA  SER A   2      11.280 102.632  17.616  0.00  0.00    +0.178 C 
ENDROOT
BRANCH   1   3
ATOM      2  C   ILE A   1      13.546 103.385  17.209  0.00  0.00    +0.238 C 
ATOM      3  N   SER A   2      12.494 103.310  18.006  0.00  0.00    -0.295 N 
ATOM      4  H   SER A   2      12.542 103.754  18.945  0.00  0.00    +0.150 HD
ATOM      5  O   ILE A   1      13.496 102.901  16.077  0.00  0.00    -0.274 OA
BRANCH   2   6
ATOM      6  CA  ILE A   1      14.790 104.072  17.772  0.00  0.00    +0.145 C 
BRANCH   6   7
ATOM      7  N   ILE A   1      14.775 104.187  19.224  0.00  0.00    -0.238 NA
ATOM      8  H   ILE A   1      15.070 103.375  19.803  0.00  0.00    +0.142 HD
ENDBRANCH   6   7
BRANCH   6   9
ATOM      9  CB  ILE A   1      16.104 103.315  17.355  0.00  0.00    +0.025 C 
ATOM     10  CG2 ILE A   1      17.359 104.111  17.672  0.00  0.00    +0.002 C 
BRANCH   9  11
ATOM     11  CG1 ILE A   1      16.209 102.044  18.122  0.00  0.00    +0.002 C 
ATOM     12  CD1 ILE A   1      17.207 101.169  17.418  0.00  0.00    +0.000 C 
ENDBRANCH   9  11
ENDBRANCH   6   9
ENDBRANCH   2   6
ENDBRANCH   1   3
BRANCH   1  13
ATOM     13  C   SER A   2      10.465 103.501  16.703  0.00  0.00    +0.243 C 
ATOM     14  O   SER A   2      10.322 104.697  16.977  0.00  0.00    -0.273 OA
ATOM     15  N   VAL A   3       9.885 102.936  15.642  0.00  0.00    -0.298 N 
ATOM     16  H   VAL A   3      10.025 101.923  15.451  0.00  0.00    +0.150 HD
BRANCH  15  17
ATOM     17  CA  VAL A   3       9.063 103.730  14.758  0.00  0.00    +0.137 C 
BRANCH  17  18
ATOM     18  CB  VAL A   3       8.892 102.992  13.420  0.00  0.00    +0.026 C 
ATOM     19  CG2 VAL A   3      10.222 103.022  12.717  0.00  0.00    +0.002 C 
ATOM     20  CG1 VAL A   3       7.912 103.679  12.481  0.00  0.00    +0.002 C 
ENDBRANCH  17  18
BRANCH  17  21
ATOM     21  C   VAL A   3       7.719 103.968  15.441  0.00  0.00    +0.227 C 
ATOM     22  O   VAL A   3       7.176 103.096  16.118  0.00  0.00    -0.286 OA
ENDBRANCH  17  21
ENDBRANCH  15  17
ENDBRANCH   1  13
BRANCH   1  23
ATOM     23  CB  SER A   2      10.420 102.308  18.811  0.00  0.00    +0.166 C 
BRANCH  23  24
ATOM     24  OG  SER A   2       9.163 101.737  18.442  0.00  0.00    -0.380 OA
ATOM     25  H   SER A   2       8.638 101.543  19.258  0.00  0.00    +0.211 HD
ENDBRANCH  23  24
ENDBRANCH   1  23
TORSDOF 11
REMARK  Name = ../refined-set-2016/1lyb/1lyb_pocket.pdb
REMARK  268 active torsions:
REMARK  status: ('A' for Active; 'I' for Inactive)
REMARK    1  A    between atoms: _1  and  _3
REMARK    2  A    between atoms: _3  and  _4
REMARK    3  A    between atoms: _3  and  _6
REMARK    4  A    between atoms: _6  and  _7
REMARK    5  A    between atoms: _7  and  _8
REMARK    6  A    between atoms: _10  and  _12
REMARK    7  A    between atoms: _12  and  _13
REMARK    8  A    between atoms: _12  and  _15
REMARK    9  A    between atoms: _15  and  _16
REMARK   10  A    between atoms: _19  and  _21
REMARK   11  A    between atoms: _21  and  _22
REMARK   12  A    between atoms: _25  and  _27
REMARK   13  A    between atoms: _27  and  _28
REMARK   14  A    between atoms: _27  and  _30
REMARK   15  A    between atoms: _30  and  _31
REMARK   16  A    between atoms: _31  and  _32
REMARK   17  A    between atoms: _37  and  _39
REMARK   18  A    between atoms: _39  and  _40
REMARK   19  A    between atoms: _39  and  _42
REMARK   20  A    between atoms: _42  and  _43
REMARK   21  A    between atoms: _48  and  _49
REMARK   22  A    between atoms: _51  and  _53
REMARK   23  A    between atoms: _53  and  _54
REMARK   24  A    between atoms: _53  and  _56
REMARK   25  A    between atoms: _59  and  _61
REMARK   26  A    between atoms: _61  and  _62
REMARK   27  A    between atoms: _61  and  _64
REMARK   28  A    between atoms: _67  and  _69
REMARK   29  A    between atoms: _69  and  _70
REMARK   30  A    between atoms: _69  and  _72
REMARK   31  A    between atoms: _72  and  _73
REMARK   32  A    between atoms: _79  and  _81
REMARK   33  A    between atoms: _81  and  _82
REMARK   34  A    between atoms: _81  and  _84
REMARK   35  A    between atoms: _84  and  _85
REMARK   36  A    between atoms: _88  and  _90
REMARK   37  A    between atoms: _90  and  _91
REMARK   38  A    between atoms: _90  and  _93
REMARK   39  A    between atoms: _93  and  _94
REMARK   40  A    between atoms: _97  and  _99
REMARK   41  A    between atoms: _99  and  _100
REMARK   42  A    between atoms: _102  and  _104
REMARK   43  A    between atoms: _104  and  _105
REMARK   44  A    between atoms: _104  and  _107
REMARK   45  A    between atoms: _107  and  _108
REMARK   46  A    between atoms: _110  and  _112
REMARK   47  A    between atoms: _112  and  _113
REMARK   48  A    between atoms: _112  and  _115
REMARK   49  A    between atoms: _115  and  _116
REMARK   50  A    between atoms: _118  and  _120
REMARK   51  A    between atoms: _120  and  _121
REMARK   52  A    between atoms: _120  and  _123
REMARK   53  A    between atoms: _123  and  _124
REMARK   54  A    between atoms: _129  and  _131
REMARK   55  A    between atoms: _131  and  _132
REMARK   56  A    between atoms: _131  and  _134
REMARK   57  A    between atoms: _134  and  _135
REMARK   58  A    between atoms: _145  and  _147
REMARK   59  A    between atoms: _147  and  _148
REMARK   60  A    between atoms: _147  and  _150
REMARK   61  A    between atoms: _150  and  _151
REMARK   62  A    between atoms: _154  and  _156
REMARK   63  A    between atoms: _156  and  _157
REMARK   64  A    between atoms: _156  and  _159
REMARK   65  A    between atoms: _159  and  _160
REMARK   66  A    between atoms: _163  and  _165
REMARK   67  A    between atoms: _165  and  _166
REMARK   68  A    between atoms: _165  and  _168
REMARK   69  A    between atoms: _168  and  _169
REMARK   70  A    between atoms: _174  and  _176
REMARK   71  A    between atoms: _176  and  _177
REMARK   72  A    between atoms: _176  and  _179
REMARK   73  A    between atoms: _179  and  _180
REMARK   74  A    between atoms: _185  and  _186
REMARK   75  A    between atoms: _188  and  _190
REMARK   76  A    between atoms: _190  and  _191
REMARK   77  A    between atoms: _193  and  _195
REMARK   78  A    between atoms: _195  and  _196
REMARK   79  A    between atoms: _195  and  _198
REMARK   80  A    between atoms: _198  and  _199
REMARK   81  A    between atoms: _201  and  _203
REMARK   82  A    between atoms: _203  and  _204
REMARK   83  A    between atoms: _206  and  _208
REMARK   84  A    between atoms: _208  and  _209
REMARK   85  A    between atoms: _208  and  _211
REMARK   86  A    between atoms: _211  and  _212
REMARK   87  A    between atoms: _214  and  _216
REMARK   88  A    between atoms: _216  and  _217
REMARK   89  A    between atoms: _216  and  _219
REMARK   90  A    between atoms: _219  and  _220
REMARK   91  A    between atoms: _223  and  _225
REMARK   92  A    between atoms: _225  and  _226
REMARK   93  A    between atoms: _225  and  _228
REMARK   94  A    between atoms: _228  and  _229
REMARK   95  A    between atoms: _232  and  _234
REMARK   96  A    between atoms: _234  and  _235
REMARK   97  A    between atoms: _234  and  _237
REMARK   98  A    between atoms: _237  and  _238
REMARK   99  A    between atoms: _244  and  _246
REMARK  100  A    between atoms: _246  and  _247
REMARK  101  A    between atoms: _250  and  _252
REMARK  102  A    between atoms: _252  and  _253
REMARK  103  A    between atoms: _256  and  _258
REMARK  104  A    between atoms: _258  and  _259
REMARK  105  A    between atoms: _258  and  _261
REMARK  106  A    between atoms: _261  and  _262
REMARK  107  A    between atoms: _262  and  _263
REMARK  108  A    between atoms: _263  and  _264
REMARK  109  A    between atoms: _264  and  _265
REMARK  110  A    between atoms: _269  and  _271
REMARK  111  A    between atoms: _271  and  _272
REMARK  112  A    between atoms: _271  and  _274
REMARK  113  A    between atoms: _274  and  _275
REMARK  114  A    between atoms: _281  and  _283
REMARK  115  A    between atoms: _283  and  _284
REMARK  116  A    between atoms: _286  and  _288
REMARK  117  A    between atoms: _288  and  _289
REMARK  118  A    between atoms: _288  and  _291
REMARK  119  A    between atoms: _291  and  _292
REMARK  120  A    between atoms: _295  and  _297
REMARK  121  A    between atoms: _297  and  _298
REMARK  122  A    between atoms: _297  and  _300
REMARK  123  A    between atoms: _300  and  _301
REMARK  124  A    between atoms: _304  and  _306
REMARK  125  A    between atoms: _306  and  _307
REMARK  126  A    between atoms: _306  and  _309
REMARK  127  A    between atoms: _309  and  _310
REMARK  128  A    between atoms: _310  and  _311
REMARK  129  A    between atoms: _313  and  _315
REMARK  130  A    between atoms: _315  and  _316
REMARK  131  A    between atoms: _319  and  _321
REMARK  132  A    between atoms: _321  and  _322
REMARK  133  A    between atoms: _321  and  _324
REMARK  134  A    between atoms: _324  and  _325
REMARK  135  A    between atoms: _328  and  _330
REMARK  136  A    between atoms: _330  and  _331
REMARK  137  A    between atoms: _330  and  _333
REMARK  138  A    between atoms: _333  and  _334
REMARK  139  A    between atoms: _336  and  _338
REMARK  140  A    between atoms: _338  and  _339
REMARK  141  A    between atoms: _338  and  _341
REMARK  142  A    between atoms: _344  and  _346
REMARK  143  A    between atoms: _346  and  _347
REMARK  144  A    between atoms: _346  and  _349
REMARK  145  A    between atoms: _349  and  _350
REMARK  146  A    between atoms: _350  and  _351
REMARK  147  A    between atoms: _351  and  _352
REMARK  148  A    between atoms: _361  and  _363
REMARK  149  A    between atoms: _363  and  _364
REMARK  150  A    between atoms: _363  and  _366
REMARK  151  A    between atoms: _366  and  _367
REMARK  152  A    between atoms: _367  and  _368
REMARK  153  A    between atoms: _368  and  _369
REMARK  154  A    between atoms: _378  and  _380
REMARK  155  A    between atoms: _380  and  _381
REMARK  156  A    between atoms: _380  and  _383
REMARK  157  A    between atoms: _383  and  _384
REMARK  158  A    between atoms: _389  and  _390
REMARK  159  A    between atoms: _392  and  _394
REMARK  160  A    between atoms: _394  and  _395
REMARK  161  A    between atoms: _394  and  _397
REMARK  162  A    between atoms: _397  and  _398
REMARK  163  A    between atoms: _398  and  _399
REMARK  164  A    between atoms: _404  and  _406
REMARK  165  A    between atoms: _406  and  _407
REMARK  166  A    between atoms: _406  and  _409
REMARK  167  A    between atoms: _409  and  _410
REMARK  168  A    between atoms: _413  and  _415
REMARK  169  A    between atoms: _415  and  _416
REMARK  170  A    between atoms: _415  and  _418
REMARK  171  A    between atoms: _421  and  _423
REMARK  172  A    between atoms: _423  and  _424
REMARK  173  A    between atoms: _423  and  _426
REMARK  174  A    between atoms: _426  and  _427
REMARK  175  A    between atoms: _430  and  _432
REMARK  176  A    between atoms: _432  and  _433
REMARK  177  A    between atoms: _432  and  _435
REMARK  178  A    between atoms: _435  and  _436
REMARK  179  A    between atoms: _439  and  _441
REMARK  180  A    between atoms: _441  and  _442
REMARK  181  A    between atoms: _444  and  _446
REMARK  182  A    between atoms: _446  and  _447
REMARK  183  A    between atoms: _446  and  _449
REMARK  184  A    between atoms: _449  and  _450
REMARK  185  A    between atoms: _453  and  _455
REMARK  186  A    between atoms: _455  and  _456
REMARK  187  A    between atoms: _455  and  _458
REMARK  188  A    between atoms: _458  and  _459
REMARK  189  A    between atoms: _461  and  _463
REMARK  190  A    between atoms: _463  and  _464
REMARK  191  A    between atoms: _463  and  _466
REMARK  192  A    between atoms: _466  and  _467
REMARK  193  A    between atoms: _470  and  _472
REMARK  194  A    between atoms: _472  and  _473
REMARK  195  A    between atoms: _472  and  _475
REMARK  196  A    between atoms: _475  and  _476
REMARK  197  A    between atoms: _476  and  _477
REMARK  198  A    between atoms: _479  and  _481
REMARK  199  A    between atoms: _481  and  _482
REMARK  200  A    between atoms: _481  and  _484
REMARK  201  A    between atoms: _487  and  _489
REMARK  202  A    between atoms: _489  and  _490
REMARK  203  A    between atoms: _489  and  _492
REMARK  204  A    between atoms: _492  and  _493
REMARK  205  A    between atoms: _496  and  _498
REMARK  206  A    between atoms: _498  and  _499
REMARK  207  A    between atoms: _498  and  _501
REMARK  208  A    between atoms: _501  and  _502
REMARK  209  A    between atoms: _502  and  _503
REMARK  210  A    between atoms: _508  and  _510
REMARK  211  A    between atoms: _510  and  _511
REMARK  212  A    between atoms: _510  and  _513
REMARK  213  A    between atoms: _513  and  _514
REMARK  214  A    between atoms: _514  and  _515
REMARK  215  A    between atoms: _518  and  _520
REMARK  216  A    between atoms: _520  and  _521
REMARK  217  A    between atoms: _520  and  _523
REMARK  218  A    between atoms: _523  and  _524
REMARK  219  A    between atoms: _527  and  _529
REMARK  220  A    between atoms: _529  and  _530
REMARK  221  A    between atoms: _529  and  _532
REMARK  222  A    between atoms: _535  and  _537
REMARK  223  A    between atoms: _537  and  _538
REMARK  224  A    between atoms: _537  and  _540
REMARK  225  A    between atoms: _540  and  _541
REMARK  226  A    between atoms: _544  and  _546
REMARK  227  A    between atoms: _546  and  _547
REMARK  228  A    between atoms: _546  and  _549
REMARK  229  A    between atoms: _549  and  _550
REMARK  230  A    between atoms: _552  and  _554
REMARK  231  A    between atoms: _554  and  _555
REMARK  232  A    between atoms: _554  and  _557
REMARK  233  A    between atoms: _557  and  _558
REMARK  234  A    between atoms: _558  and  _559
REMARK  235  A    between atoms: _561  and  _563
REMARK  236  A    between atoms: _563  and  _564
REMARK  237  A    between atoms: _563  and  _566
REMARK  238  A    between atoms: _566  and  _567
REMARK  239  A    between atoms: _567  and  _568
REMARK  240  A    between atoms: _570  and  _572
REMARK  241  A    between atoms: _572  and  _573
REMARK  242  A    between atoms: _572  and  _575
REMARK  243  A    between atoms: _575  and  _576
REMARK  244  A    between atoms: _579  and  _581
REMARK  245  A    between atoms: _581  and  _582
REMARK  246  A    between atoms: _581  and  _584
REMARK  247  A    between atoms: _584  and  _585
REMARK  248  A    between atoms: _589  and  _590
REMARK  249  A    between atoms: _595  and  _597
REMARK  250  A    between atoms: _597  and  _598
REMARK  251  A    between atoms: _597  and  _600
REMARK  252  A    between atoms: _600  and  _601
REMARK  253  A    between atoms: _603  and  _605
REMARK  254  A    between atoms: _605  and  _606
REMARK  255  A    between atoms: _608  and  _610
REMARK  256  A    between atoms: _610  and  _611
REMARK  257  A    between atoms: _610  and  _613
REMARK  258  A    between atoms: _613  and  _614
REMARK  259  A    between atoms: _617  and  _619
REMARK  260  A    between atoms: _619  and  _620
REMARK  261  A    between atoms: _619  and  _622
REMARK  262  A    between atoms: _622  and  _623
REMARK  263  A    between atoms: _626  and  _628
REMARK  264  A    between atoms: _628  and  _629
REMARK  265  A    between atoms: _631  and  _633
REMARK  266  A    between atoms: _633  and  _634
REMARK  267  A    between atoms: _633  and  _636
REMARK  268  A    between atoms: _636  and  _637
REMARK                            x       y       z     vdW  Elec       q    Type
REMARK                         _______ _______ _______ _____ _____    ______ ____
ROOT
ATOM      1  NE  ARG A   1      27.585  81.857  13.896  0.00  0.00    -0.265 N 
ATOM      2  HE  ARG A   1      26.557  81.889  14.050  0.00  0.00    +0.259 HD
ATOM      3  CZ  ARG A   1      28.089  82.548  12.864  0.00  0.00    +0.342 C 
ATOM      4  NH2 ARG A   1      29.397  82.534  12.603  0.00  0.00    -0.292 N 
ATOM      5 HH21 ARG A   1      30.041  81.982  13.204  0.00  0.00    +0.255 HD
ATOM      6 HH22 ARG A   1      29.773  83.076  11.798  0.00  0.00    +0.255 HD
ATOM      7  NH1 ARG A   1      27.284  83.325  12.121  0.00  0.00    -0.292 N 
ATOM      8 HH11 ARG A   1      26.271  83.390  12.347  0.00  0.00    +0.255 HD
ATOM      9 HH12 ARG A   1      27.674  83.862  11.320  0.00  0.00    +0.255 HD
ENDROOT
BRANCH   1  10
ATOM     10  CD  ARG A   1      28.398  81.056  14.823  0.00  0.00    +0.174 C 
BRANCH  10  11
ATOM     11  CG  ARG A   1      29.255  79.912  14.247  0.00  0.00    +0.045 C 
BRANCH  11  12
ATOM     12  CB  ARG A   1      29.034  78.578  14.958  0.00  0.00    +0.029 C 
BRANCH  12  13
ATOM     13  CA  ARG A   1      27.623  78.075  14.684  0.00  0.00    +0.133 C 
BRANCH  13  14
ATOM     14  N   ARG A   1      26.969  77.799  15.938  0.00  0.00    -0.239 NA
ATOM     15  H   ARG A   1      27.491  77.393  16.740  0.00  0.00    +0.142 HD
ENDBRANCH  13  14
BRANCH  13  16
ATOM     16  C   ARG A   1      27.640  76.858  13.774  0.00  0.00    +0.224 C 
ATOM     17  O   ARG A   1      28.380  76.869  12.795  0.00  0.00    -0.287 OA
ENDBRANCH  13  16
ENDBRANCH  12  13
ENDBRANCH  11  12
ENDBRANCH  10  11
ENDBRANCH   1  10
TORSDOF 6
REMARK  Name = ../refined-set-2016/1lyb/1lyb_pocket.pdb
REMARK  268 active torsions:
REMARK  status: ('A' for Active; 'I' for Inactive)
REMARK    1  A    between atoms: _1  and  _3
REMARK    2  A    between atoms: _3  and  _4
REMARK    3  A    between atoms: _3  and  _6
REMARK    4  A    between atoms: _6  and  _7
REMARK    5  A    between atoms: _7  and  _8
REMARK    6  A    between atoms: _10  and  _12
REMARK    7  A    between atoms: _12  and  _13
REMARK    8  A    between atoms: _12  and  _15
REMARK    9  A    between atoms: _15  and  _16
REMARK   10  A    between atoms: _19  and  _21
REMARK   11  A    between atoms: _21  and  _22
REMARK   12  A    between atoms: _25  and  _27
REMARK   13  A    between atoms: _27  and  _28
REMARK   14  A    between atoms: _27  and  _30
REMARK   15  A    between atoms: _30  and  _31
REMARK   16  A    between atoms: _31  and  _32
REMARK   17  A    between atoms: _37  and  _39
REMARK   18  A    between atoms: _39  and  _40
REMARK   19  A    between atoms: _39  and  _42
REMARK   20  A    between atoms: _42  and  _43
REMARK   21  A    between atoms: _48  and  _49
REMARK   22  A    between atoms: _51  and  _53
REMARK   23  A    between atoms: _53  and  _54
REMARK   24  A    between atoms: _53  and  _56
REMARK   25  A    between atoms: _59  and  _61
REMARK   26  A    between atoms: _61  and  _62
REMARK   27  A    between atoms: _61  and  _64
REMARK   28  A    between atoms: _67  and  _69
REMARK   29  A    between atoms: _69  and  _70
REMARK   30  A    between atoms: _69  and  _72
REMARK   31  A    between atoms: _72  and  _73
REMARK   32  A    between atoms: _79  and  _81
REMARK   33  A    between atoms: _81  and  _82
REMARK   34  A    between atoms: _81  and  _84
REMARK   35  A    between atoms: _84  and  _85
REMARK   36  A    between atoms: _88  and  _90
REMARK   37  A    between atoms: _90  and  _91
REMARK   38  A    between atoms: _90  and  _93
REMARK   39  A    between atoms: _93  and  _94
REMARK   40  A    between atoms: _97  and  _99
REMARK   41  A    between atoms: _99  and  _100
REMARK   42  A    between atoms: _102  and  _104
REMARK   43  A    between atoms: _104  and  _105
REMARK   44  A    between atoms: _104  and  _107
REMARK   45  A    between atoms: _107  and  _108
REMARK   46  A    between atoms: _110  and  _112
REMARK   47  A    between atoms: _112  and  _113
REMARK   48  A    between atoms: _112  and  _115
REMARK   49  A    between atoms: _115  and  _116
REMARK   50  A    between atoms: _118  and  _120
REMARK   51  A    between atoms: _120  and  _121
REMARK   52  A    between atoms: _120  and  _123
REMARK   53  A    between atoms: _123  and  _124
REMARK   54  A    between atoms: _129  and  _131
REMARK   55  A    between atoms: _131  and  _132
REMARK   56  A    between atoms: _131  and  _134
REMARK   57  A    between atoms: _134  and  _135
REMARK   58  A    between atoms: _145  and  _147
REMARK   59  A    between atoms: _147  and  _148
REMARK   60  A    between atoms: _147  and  _150
REMARK   61  A    between atoms: _150  and  _151
REMARK   62  A    between atoms: _154  and  _156
REMARK   63  A    between atoms: _156  and  _157
REMARK   64  A    between atoms: _156  and  _159
REMARK   65  A    between atoms: _159  and  _160
REMARK   66  A    between atoms: _163  and  _165
REMARK   67  A    between atoms: _165  and  _166
REMARK   68  A    between atoms: _165  and  _168
REMARK   69  A    between atoms: _168  and  _169
REMARK   70  A    between atoms: _174  and  _176
REMARK   71  A    between atoms: _176  and  _177
REMARK   72  A    between atoms: _176  and  _179
REMARK   73  A    between atoms: _179  and  _180
REMARK   74  A    between atoms: _185  and  _186
REMARK   75  A    between atoms: _188  and  _190
REMARK   76  A    between atoms: _190  and  _191
REMARK   77  A    between atoms: _193  and  _195
REMARK   78  A    between atoms: _195  and  _196
REMARK   79  A    between atoms: _195  and  _198
REMARK   80  A    between atoms: _198  and  _199
REMARK   81  A    between atoms: _201  and  _203
REMARK   82  A    between atoms: _203  and  _204
REMARK   83  A    between atoms: _206  and  _208
REMARK   84  A    between atoms: _208  and  _209
REMARK   85  A    between atoms: _208  and  _211
REMARK   86  A    between atoms: _211  and  _212
REMARK   87  A    between atoms: _214  and  _216
REMARK   88  A    between atoms: _216  and  _217
REMARK   89  A    between atoms: _216  and  _219
REMARK   90  A    between atoms: _219  and  _220
REMARK   91  A    between atoms: _223  and  _225
REMARK   92  A    between atoms: _225  and  _226
REMARK   93  A    between atoms: _225  and  _228
REMARK   94  A    between atoms: _228  and  _229
REMARK   95  A    between atoms: _232  and  _234
REMARK   96  A    between atoms: _234  and  _235
REMARK   97  A    between atoms: _234  and  _237
REMARK   98  A    between atoms: _237  and  _238
REMARK   99  A    between atoms: _244  and  _246
REMARK  100  A    between atoms: _246  and  _247
REMARK  101  A    between atoms: _250  and  _252
REMARK  102  A    between atoms: _252  and  _253
REMARK  103  A    between atoms: _256  and  _258
REMARK  104  A    between atoms: _258  and  _259
REMARK  105  A    between atoms: _258  and  _261
REMARK  106  A    between atoms: _261  and  _262
REMARK  107  A    between atoms: _262  and  _263
REMARK  108  A    between atoms: _263  and  _264
REMARK  109  A    between atoms: _264  and  _265
REMARK  110  A    between atoms: _269  and  _271
REMARK  111  A    between atoms: _271  and  _272
REMARK  112  A    between atoms: _271  and  _274
REMARK  113  A    between atoms: _274  and  _275
REMARK  114  A    between atoms: _281  and  _283
REMARK  115  A    between atoms: _283  and  _284
REMARK  116  A    between atoms: _286  and  _288
REMARK  117  A    between atoms: _288  and  _289
REMARK  118  A    between atoms: _288  and  _291
REMARK  119  A    between atoms: _291  and  _292
REMARK  120  A    between atoms: _295  and  _297
REMARK  121  A    between atoms: _297  and  _298
REMARK  122  A    between atoms: _297  and  _300
REMARK  123  A    between atoms: _300  and  _301
REMARK  124  A    between atoms: _304  and  _306
REMARK  125  A    between atoms: _306  and  _307
REMARK  126  A    between atoms: _306  and  _309
REMARK  127  A    between atoms: _309  and  _310
REMARK  128  A    between atoms: _310  and  _311
REMARK  129  A    between atoms: _313  and  _315
REMARK  130  A    between atoms: _315  and  _316
REMARK  131  A    between atoms: _319  and  _321
REMARK  132  A    between atoms: _321  and  _322
REMARK  133  A    between atoms: _321  and  _324
REMARK  134  A    between atoms: _324  and  _325
REMARK  135  A    between atoms: _328  and  _330
REMARK  136  A    between atoms: _330  and  _331
REMARK  137  A    between atoms: _330  and  _333
REMARK  138  A    between atoms: _333  and  _334
REMARK  139  A    between atoms: _336  and  _338
REMARK  140  A    between atoms: _338  and  _339
REMARK  141  A    between atoms: _338  and  _341
REMARK  142  A    between atoms: _344  and  _346
REMARK  143  A    between atoms: _346  and  _347
REMARK  144  A    between atoms: _346  and  _349
REMARK  145  A    between atoms: _349  and  _350
REMARK  146  A    between atoms: _350  and  _351
REMARK  147  A    between atoms: _351  and  _352
REMARK  148  A    between atoms: _361  and  _363
REMARK  149  A    between atoms: _363  and  _364
REMARK  150  A    between atoms: _363  and  _366
REMARK  151  A    between atoms: _366  and  _367
REMARK  152  A    between atoms: _367  and  _368
REMARK  153  A    between atoms: _368  and  _369
REMARK  154  A    between atoms: _378  and  _380
REMARK  155  A    between atoms: _380  and  _381
REMARK  156  A    between atoms: _380  and  _383
REMARK  157  A    between atoms: _383  and  _384
REMARK  158  A    between atoms: _389  and  _390
REMARK  159  A    between atoms: _392  and  _394
REMARK  160  A    between atoms: _394  and  _395
REMARK  161  A    between atoms: _394  and  _397
REMARK  162  A    between atoms: _397  and  _398
REMARK  163  A    between atoms: _398  and  _399
REMARK  164  A    between atoms: _404  and  _406
REMARK  165  A    between atoms: _406  and  _407
REMARK  166  A    between atoms: _406  and  _409
REMARK  167  A    between atoms: _409  and  _410
REMARK  168  A    between atoms: _413  and  _415
REMARK  169  A    between atoms: _415  and  _416
REMARK  170  A    between atoms: _415  and  _418
REMARK  171  A    between atoms: _421  and  _423
REMARK  172  A    between atoms: _423  and  _424
REMARK  173  A    between atoms: _423  and  _426
REMARK  174  A    between atoms: _426  and  _427
REMARK  175  A    between atoms: _430  and  _432
REMARK  176  A    between atoms: _432  and  _433
REMARK  177  A    between atoms: _432  and  _435
REMARK  178  A    between atoms: _435  and  _436
REMARK  179  A    between atoms: _439  and  _441
REMARK  180  A    between atoms: _441  and  _442
REMARK  181  A    between atoms: _444  and  _446
REMARK  182  A    between atoms: _446  and  _447
REMARK  183  A    between atoms: _446  and  _449
REMARK  184  A    between atoms: _449  and  _450
REMARK  185  A    between atoms: _453  and  _455
REMARK  186  A    between atoms: _455  and  _456
REMARK  187  A    between atoms: _455  and  _458
REMARK  188  A    between atoms: _458  and  _459
REMARK  189  A    between atoms: _461  and  _463
REMARK  190  A    between atoms: _463  and  _464
REMARK  191  A    between atoms: _463  and  _466
REMARK  192  A    between atoms: _466  and  _467
REMARK  193  A    between atoms: _470  and  _472
REMARK  194  A    between atoms: _472  and  _473
REMARK  195  A    between atoms: _472  and  _475
REMARK  196  A    between atoms: _475  and  _476
REMARK  197  A    between atoms: _476  and  _477
REMARK  198  A    between atoms: _479  and  _481
REMARK  199  A    between atoms: _481  and  _482
REMARK  200  A    between atoms: _481  and  _484
REMARK  201  A    between atoms: _487  and  _489
REMARK  202  A    between atoms: _489  and  _490
REMARK  203  A    between atoms: _489  and  _492
REMARK  204  A    between atoms: _492  and  _493
REMARK  205  A    between atoms: _496  and  _498
REMARK  206  A    between atoms: _498  and  _499
REMARK  207  A    between atoms: _498  and  _501
REMARK  208  A    between atoms: _501  and  _502
REMARK  209  A    between atoms: _502  and  _503
REMARK  210  A    between atoms: _508  and  _510
REMARK  211  A    between atoms: _510  and  _511
REMARK  212  A    between atoms: _510  and  _513
REMARK  213  A    between atoms: _513  and  _514
REMARK  214  A    between atoms: _514  and  _515
REMARK  215  A    between atoms: _518  and  _520
REMARK  216  A    between atoms: _520  and  _521
REMARK  217  A    between atoms: _520  and  _523
REMARK  218  A    between atoms: _523  and  _524
REMARK  219  A    between atoms: _527  and  _529
REMARK  220  A    between atoms: _529  and  _530
REMARK  221  A    between atoms: _529  and  _532
REMARK  222  A    between atoms: _535  and  _537
REMARK  223  A    between atoms: _537  and  _538
REMARK  224  A    between atoms: _537  and  _540
REMARK  225  A    between atoms: _540  and  _541
REMARK  226  A    between atoms: _544  and  _546
REMARK  227  A    between atoms: _546  and  _547
REMARK  228  A    between atoms: _546  and  _549
REMARK  229  A    between atoms: _549  and  _550
REMARK  230  A    between atoms: _552  and  _554
REMARK  231  A    between atoms: _554  and  _555
REMARK  232  A    between atoms: _554  and  _557
REMARK  233  A    between atoms: _557  and  _558
REMARK  234  A    between atoms: _558  and  _559
REMARK  235  A    between atoms: _561  and  _563
REMARK  236  A    between atoms: _563  and  _564
REMARK  237  A    between atoms: _563  and  _566
REMARK  238  A    between atoms: _566  and  _567
REMARK  239  A    between atoms: _567  and  _568
REMARK  240  A    between atoms: _570  and  _572
REMARK  241  A    between atoms: _572  and  _573
REMARK  242  A    between atoms: _572  and  _575
REMARK  243  A    between atoms: _575  and  _576
REMARK  244  A    between atoms: _579  and  _581
REMARK  245  A    between atoms: _581  and  _582
REMARK  246  A    between atoms: _581  and  _584
REMARK  247  A    between atoms: _584  and  _585
REMARK  248  A    between atoms: _589  and  _590
REMARK  249  A    between atoms: _595  and  _597
REMARK  250  A    between atoms: _597  and  _598
REMARK  251  A    between atoms: _597  and  _600
REMARK  252  A    between atoms: _600  and  _601
REMARK  253  A    between atoms: _603  and  _605
REMARK  254  A    between atoms: _605  and  _606
REMARK  255  A    between atoms: _608  and  _610
REMARK  256  A    between atoms: _610  and  _611
REMARK  257  A    between atoms: _610  and  _613
REMARK  258  A    between atoms: _613  and  _614
REMARK  259  A    between atoms: _617  and  _619
REMARK  260  A    between atoms: _619  and  _620
REMARK  261  A    between atoms: _619  and  _622
REMARK  262  A    between atoms: _622  and  _623
REMARK  263  A    between atoms: _626  and  _628
REMARK  264  A    between atoms: _628  and  _629
REMARK  265  A    between atoms: _631  and  _633
REMARK  266  A    between atoms: _633  and  _634
REMARK  267  A    between atoms: _633  and  _636
REMARK  268  A    between atoms: _636  and  _637
REMARK                            x       y       z     vdW  Elec       q    Type
REMARK                         _______ _______ _______ _____ _____    ______ ____
ROOT
ATOM      1  NE  ARG A   1      21.839 107.628  20.270  0.00  0.00    -0.265 N 
ATOM      2  HE  ARG A   1      21.283 108.249  20.892  0.00  0.00    +0.259 HD
ATOM      3  CZ  ARG A   1      21.367 107.349  19.044  0.00  0.00    +0.342 C 
ATOM      4  NH2 ARG A   1      20.176 107.845  18.657  0.00  0.00    -0.292 N 
ATOM      5 HH21 ARG A   1      19.625 108.442  19.307  0.00  0.00    +0.255 HD
ATOM      6 HH22 ARG A   1      19.807 107.631  17.708  0.00  0.00    +0.255 HD
ATOM      7  NH1 ARG A   1      22.060 106.565  18.215  0.00  0.00    -0.292 N 
ATOM      8 HH11 ARG A   1      22.972 106.166  18.517  0.00  0.00    +0.255 HD
ATOM      9 HH12 ARG A   1      21.688 106.353  17.267  0.00  0.00    +0.255 HD
ENDROOT
BRANCH   1  10
ATOM     10  CD  ARG A   1      23.101 107.093  20.759  0.00  0.00    +0.174 C 
BRANCH  10  11
ATOM     11  CG  ARG A   1      22.951 106.604  22.198  0.00  0.00    +0.045 C 
BRANCH  11  12
ATOM     12  CB  ARG A   1      24.140 105.780  22.650  0.00  0.00    +0.029 C 
BRANCH  12  13
ATOM     13  CA  ARG A   1      24.022 105.272  24.055  0.00  0.00    +0.133 C 
BRANCH  13  14
ATOM     14  N   ARG A   1      25.261 104.647  24.493  0.00  0.00    -0.239 NA
ATOM     15  H   ARG A   1      25.867 104.174  23.793  0.00  0.00    +0.142 HD
ENDBRANCH  13  14
BRANCH  13  16
ATOM     16  C   ARG A   1      22.894 104.268  24.114  0.00  0.00    +0.224 C 
ATOM     17  O   ARG A   1      22.893 103.225  23.456  0.00  0.00    -0.287 OA
ENDBRANCH  13  16
ENDBRANCH  12  13
ENDBRANCH  11  12
ENDBRANCH  10  11
ENDBRANCH   1  10
TORSDOF 6
REMARK  Name = ../refined-set-2016/1lyb/1lyb_pocket.pdb
REMARK  268 active torsions:
REMARK  status: ('A' for Active; 'I' for Inactive)
REMARK    1  A    between atoms: _1  and  _3
REMARK    2  A    between atoms: _3  and  _4
REMARK    3  A    between atoms: _3  and  _6
REMARK    4  A    between atoms: _6  and  _7
REMARK    5  A    between atoms: _7  and  _8
REMARK    6  A    between atoms: _10  and  _12
REMARK    7  A    between atoms: _12  and  _13
REMARK    8  A    between atoms: _12  and  _15
REMARK    9  A    between atoms: _15  and  _16
REMARK   10  A    between atoms: _19  and  _21
REMARK   11  A    between atoms: _21  and  _22
REMARK   12  A    between atoms: _25  and  _27
REMARK   13  A    between atoms: _27  and  _28
REMARK   14  A    between atoms: _27  and  _30
REMARK   15  A    between atoms: _30  and  _31
REMARK   16  A    between atoms: _31  and  _32
REMARK   17  A    between atoms: _37  and  _39
REMARK   18  A    between atoms: _39  and  _40
REMARK   19  A    between atoms: _39  and  _42
REMARK   20  A    between atoms: _42  and  _43
REMARK   21  A    between atoms: _48  and  _49
REMARK   22  A    between atoms: _51  and  _53
REMARK   23  A    between atoms: _53  and  _54
REMARK   24  A    between atoms: _53  and  _56
REMARK   25  A    between atoms: _59  and  _61
REMARK   26  A    between atoms: _61  and  _62
REMARK   27  A    between atoms: _61  and  _64
REMARK   28  A    between atoms: _67  and  _69
REMARK   29  A    between atoms: _69  and  _70
REMARK   30  A    between atoms: _69  and  _72
REMARK   31  A    between atoms: _72  and  _73
REMARK   32  A    between atoms: _79  and  _81
REMARK   33  A    between atoms: _81  and  _82
REMARK   34  A    between atoms: _81  and  _84
REMARK   35  A    between atoms: _84  and  _85
REMARK   36  A    between atoms: _88  and  _90
REMARK   37  A    between atoms: _90  and  _91
REMARK   38  A    between atoms: _90  and  _93
REMARK   39  A    between atoms: _93  and  _94
REMARK   40  A    between atoms: _97  and  _99
REMARK   41  A    between atoms: _99  and  _100
REMARK   42  A    between atoms: _102  and  _104
REMARK   43  A    between atoms: _104  and  _105
REMARK   44  A    between atoms: _104  and  _107
REMARK   45  A    between atoms: _107  and  _108
REMARK   46  A    between atoms: _110  and  _112
REMARK   47  A    between atoms: _112  and  _113
REMARK   48  A    between atoms: _112  and  _115
REMARK   49  A    between atoms: _115  and  _116
REMARK   50  A    between atoms: _118  and  _120
REMARK   51  A    between atoms: _120  and  _121
REMARK   52  A    between atoms: _120  and  _123
REMARK   53  A    between atoms: _123  and  _124
REMARK   54  A    between atoms: _129  and  _131
REMARK   55  A    between atoms: _131  and  _132
REMARK   56  A    between atoms: _131  and  _134
REMARK   57  A    between atoms: _134  and  _135
REMARK   58  A    between atoms: _145  and  _147
REMARK   59  A    between atoms: _147  and  _148
REMARK   60  A    between atoms: _147  and  _150
REMARK   61  A    between atoms: _150  and  _151
REMARK   62  A    between atoms: _154  and  _156
REMARK   63  A    between atoms: _156  and  _157
REMARK   64  A    between atoms: _156  and  _159
REMARK   65  A    between atoms: _159  and  _160
REMARK   66  A    between atoms: _163  and  _165
REMARK   67  A    between atoms: _165  and  _166
REMARK   68  A    between atoms: _165  and  _168
REMARK   69  A    between atoms: _168  and  _169
REMARK   70  A    between atoms: _174  and  _176
REMARK   71  A    between atoms: _176  and  _177
REMARK   72  A    between atoms: _176  and  _179
REMARK   73  A    between atoms: _179  and  _180
REMARK   74  A    between atoms: _185  and  _186
REMARK   75  A    between atoms: _188  and  _190
REMARK   76  A    between atoms: _190  and  _191
REMARK   77  A    between atoms: _193  and  _195
REMARK   78  A    between atoms: _195  and  _196
REMARK   79  A    between atoms: _195  and  _198
REMARK   80  A    between atoms: _198  and  _199
REMARK   81  A    between atoms: _201  and  _203
REMARK   82  A    between atoms: _203  and  _204
REMARK   83  A    between atoms: _206  and  _208
REMARK   84  A    between atoms: _208  and  _209
REMARK   85  A    between atoms: _208  and  _211
REMARK   86  A    between atoms: _211  and  _212
REMARK   87  A    between atoms: _214  and  _216
REMARK   88  A    between atoms: _216  and  _217
REMARK   89  A    between atoms: _216  and  _219
REMARK   90  A    between atoms: _219  and  _220
REMARK   91  A    between atoms: _223  and  _225
REMARK   92  A    between atoms: _225  and  _226
REMARK   93  A    between atoms: _225  and  _228
REMARK   94  A    between atoms: _228  and  _229
REMARK   95  A    between atoms: _232  and  _234
REMARK   96  A    between atoms: _234  and  _235
REMARK   97  A    between atoms: _234  and  _237
REMARK   98  A    between atoms: _237  and  _238
REMARK   99  A    between atoms: _244  and  _246
REMARK  100  A    between atoms: _246  and  _247
REMARK  101  A    between atoms: _250  and  _252
REMARK  102  A    between atoms: _252  and  _253
REMARK  103  A    between atoms: _256  and  _258
REMARK  104  A    between atoms: _258  and  _259
REMARK  105  A    between atoms: _258  and  _261
REMARK  106  A    between atoms: _261  and  _262
REMARK  107  A    between atoms: _262  and  _263
REMARK  108  A    between atoms: _263  and  _264
REMARK  109  A    between atoms: _264  and  _265
REMARK  110  A    between atoms: _269  and  _271
REMARK  111  A    between atoms: _271  and  _272
REMARK  112  A    between atoms: _271  and  _274
REMARK  113  A    between atoms: _274  and  _275
REMARK  114  A    between atoms: _281  and  _283
REMARK  115  A    between atoms: _283  and  _284
REMARK  116  A    between atoms: _286  and  _288
REMARK  117  A    between atoms: _288  and  _289
REMARK  118  A    between atoms: _288  and  _291
REMARK  119  A    between atoms: _291  and  _292
REMARK  120  A    between atoms: _295  and  _297
REMARK  121  A    between atoms: _297  and  _298
REMARK  122  A    between atoms: _297  and  _300
REMARK  123  A    between atoms: _300  and  _301
REMARK  124  A    between atoms: _304  and  _306
REMARK  125  A    between atoms: _306  and  _307
REMARK  126  A    between atoms: _306  and  _309
REMARK  127  A    between atoms: _309  and  _310
REMARK  128  A    between atoms: _310  and  _311
REMARK  129  A    between atoms: _313  and  _315
REMARK  130  A    between atoms: _315  and  _316
REMARK  131  A    between atoms: _319  and  _321
REMARK  132  A    between atoms: _321  and  _322
REMARK  133  A    between atoms: _321  and  _324
REMARK  134  A    between atoms: _324  and  _325
REMARK  135  A    between atoms: _328  and  _330
REMARK  136  A    between atoms: _330  and  _331
REMARK  137  A    between atoms: _330  and  _333
REMARK  138  A    between atoms: _333  and  _334
REMARK  139  A    between atoms: _336  and  _338
REMARK  140  A    between atoms: _338  and  _339
REMARK  141  A    between atoms: _338  and  _341
REMARK  142  A    between atoms: _344  and  _346
REMARK  143  A    between atoms: _346  and  _347
REMARK  144  A    between atoms: _346  and  _349
REMARK  145  A    between atoms: _349  and  _350
REMARK  146  A    between atoms: _350  and  _351
REMARK  147  A    between atoms: _351  and  _352
REMARK  148  A    between atoms: _361  and  _363
REMARK  149  A    between atoms: _363  and  _364
REMARK  150  A    between atoms: _363  and  _366
REMARK  151  A    between atoms: _366  and  _367
REMARK  152  A    between atoms: _367  and  _368
REMARK  153  A    between atoms: _368  and  _369
REMARK  154  A    between atoms: _378  and  _380
REMARK  155  A    between atoms: _380  and  _381
REMARK  156  A    between atoms: _380  and  _383
REMARK  157  A    between atoms: _383  and  _384
REMARK  158  A    between atoms: _389  and  _390
REMARK  159  A    between atoms: _392  and  _394
REMARK  160  A    between atoms: _394  and  _395
REMARK  161  A    between atoms: _394  and  _397
REMARK  162  A    between atoms: _397  and  _398
REMARK  163  A    between atoms: _398  and  _399
REMARK  164  A    between atoms: _404  and  _406
REMARK  165  A    between atoms: _406  and  _407
REMARK  166  A    between atoms: _406  and  _409
REMARK  167  A    between atoms: _409  and  _410
REMARK  168  A    between atoms: _413  and  _415
REMARK  169  A    between atoms: _415  and  _416
REMARK  170  A    between atoms: _415  and  _418
REMARK  171  A    between atoms: _421  and  _423
REMARK  172  A    between atoms: _423  and  _424
REMARK  173  A    between atoms: _423  and  _426
REMARK  174  A    between atoms: _426  and  _427
REMARK  175  A    between atoms: _430  and  _432
REMARK  176  A    between atoms: _432  and  _433
REMARK  177  A    between atoms: _432  and  _435
REMARK  178  A    between atoms: _435  and  _436
REMARK  179  A    between atoms: _439  and  _441
REMARK  180  A    between atoms: _441  and  _442
REMARK  181  A    between atoms: _444  and  _446
REMARK  182  A    between atoms: _446  and  _447
REMARK  183  A    between atoms: _446  and  _449
REMARK  184  A    between atoms: _449  and  _450
REMARK  185  A    between atoms: _453  and  _455
REMARK  186  A    between atoms: _455  and  _456
REMARK  187  A    between atoms: _455  and  _458
REMARK  188  A    between atoms: _458  and  _459
REMARK  189  A    between atoms: _461  and  _463
REMARK  190  A    between atoms: _463  and  _464
REMARK  191  A    between atoms: _463  and  _466
REMARK  192  A    between atoms: _466  and  _467
REMARK  193  A    between atoms: _470  and  _472
REMARK  194  A    between atoms: _472  and  _473
REMARK  195  A    between atoms: _472  and  _475
REMARK  196  A    between atoms: _475  and  _476
REMARK  197  A    between atoms: _476  and  _477
REMARK  198  A    between atoms: _479  and  _481
REMARK  199  A    between atoms: _481  and  _482
REMARK  200  A    between atoms: _481  and  _484
REMARK  201  A    between atoms: _487  and  _489
REMARK  202  A    between atoms: _489  and  _490
REMARK  203  A    between atoms: _489  and  _492
REMARK  204  A    between atoms: _492  and  _493
REMARK  205  A    between atoms: _496  and  _498
REMARK  206  A    between atoms: _498  and  _499
REMARK  207  A    between atoms: _498  and  _501
REMARK  208  A    between atoms: _501  and  _502
REMARK  209  A    between atoms: _502  and  _503
REMARK  210  A    between atoms: _508  and  _510
REMARK  211  A    between atoms: _510  and  _511
REMARK  212  A    between atoms: _510  and  _513
REMARK  213  A    between atoms: _513  and  _514
REMARK  214  A    between atoms: _514  and  _515
REMARK  215  A    between atoms: _518  and  _520
REMARK  216  A    between atoms: _520  and  _521
REMARK  217  A    between atoms: _520  and  _523
REMARK  218  A    between atoms: _523  and  _524
REMARK  219  A    between atoms: _527  and  _529
REMARK  220  A    between atoms: _529  and  _530
REMARK  221  A    between atoms: _529  and  _532
REMARK  222  A    between atoms: _535  and  _537
REMARK  223  A    between atoms: _537  and  _538
REMARK  224  A    between atoms: _537  and  _540
REMARK  225  A    between atoms: _540  and  _541
REMARK  226  A    between atoms: _544  and  _546
REMARK  227  A    between atoms: _546  and  _547
REMARK  228  A    between atoms: _546  and  _549
REMARK  229  A    between atoms: _549  and  _550
REMARK  230  A    between atoms: _552  and  _554
REMARK  231  A    between atoms: _554  and  _555
REMARK  232  A    between atoms: _554  and  _557
REMARK  233  A    between atoms: _557  and  _558
REMARK  234  A    between atoms: _558  and  _559
REMARK  235  A    between atoms: _561  and  _563
REMARK  236  A    between atoms: _563  and  _564
REMARK  237  A    between atoms: _563  and  _566
REMARK  238  A    between atoms: _566  and  _567
REMARK  239  A    between atoms: _567  and  _568
REMARK  240  A    between atoms: _570  and  _572
REMARK  241  A    between atoms: _572  and  _573
REMARK  242  A    between atoms: _572  and  _575
REMARK  243  A    between atoms: _575  and  _576
REMARK  244  A    between atoms: _579  and  _581
REMARK  245  A    between atoms: _581  and  _582
REMARK  246  A    between atoms: _581  and  _584
REMARK  247  A    between atoms: _584  and  _585
REMARK  248  A    between atoms: _589  and  _590
REMARK  249  A    between atoms: _595  and  _597
REMARK  250  A    between atoms: _597  and  _598
REMARK  251  A    between atoms: _597  and  _600
REMARK  252  A    between atoms: _600  and  _601
REMARK  253  A    between atoms: _603  and  _605
REMARK  254  A    between atoms: _605  and  _606
REMARK  255  A    between atoms: _608  and  _610
REMARK  256  A    between atoms: _610  and  _611
REMARK  257  A    between atoms: _610  and  _613
REMARK  258  A    between atoms: _613  and  _614
REMARK  259  A    between atoms: _617  and  _619
REMARK  260  A    between atoms: _619  and  _620
REMARK  261  A    between atoms: _619  and  _622
REMARK  262  A    between atoms: _622  and  _623
REMARK  263  A    between atoms: _626  and  _628
REMARK  264  A    between atoms: _628  and  _629
REMARK  265  A    between atoms: _631  and  _633
REMARK  266  A    between atoms: _633  and  _634
REMARK  267  A    between atoms: _633  and  _636
REMARK  268  A    between atoms: _636  and  _637
REMARK                            x       y       z     vdW  Elec       q    Type
REMARK                         _______ _______ _______ _____ _____    ______ ____
ROOT
ATOM      1  CG  TYR A   1      21.472 101.038  17.610  0.00  0.00    -0.020 A 
ATOM      2  CD2 TYR A   1      21.957 102.292  17.363  0.00  0.00    -0.001 A 
ATOM      3  CE2 TYR A   1      21.603 102.936  16.208  0.00  0.00    +0.036 A 
ATOM      4  CZ  TYR A   1      20.752 102.318  15.324  0.00  0.00    +0.134 A 
ATOM      5  CE1 TYR A   1      20.265 101.067  15.576  0.00  0.00    +0.036 A 
ATOM      6  CD1 TYR A   1      20.633 100.435  16.734  0.00  0.00    -0.001 A 
ENDROOT
BRANCH   4   7
ATOM      7  OH  TYR A   1      20.387 102.947  14.157  0.00  0.00    -0.506 OA
ATOM      8  HH  TYR A   1      19.775 102.361  13.645  0.00  0.00    +0.292 HD
ENDBRANCH   4   7
BRANCH   1   9
ATOM      9  CB  TYR A   1      21.864 100.309  18.869  0.00  0.00    +0.051 C 
BRANCH   9  10
ATOM     10  CA  TYR A   1      20.858 100.410  19.999  0.00  0.00    +0.137 C 
BRANCH  10  11
ATOM     11  N   TYR A   1      20.522 101.768  20.429  0.00  0.00    -0.239 NA
ATOM     12  H   TYR A   1      21.213 102.527  20.261  0.00  0.00    +0.142 HD
ENDBRANCH  10  11
BRANCH  10  13
ATOM     13  C   TYR A   1      21.601  99.905  21.208  0.00  0.00    +0.224 C 
ATOM     14  O   TYR A   1      21.923 100.717  22.080  0.00  0.00    -0.287 OA
ENDBRANCH  10  13
ENDBRANCH   9  10
ENDBRANCH   1   9
TORSDOF 5
REMARK  Name = ../refined-set-2016/1lyb/1lyb_pocket.pdb
REMARK  268 active torsions:
REMARK  status: ('A' for Active; 'I' for Inactive)
REMARK    1  A    between atoms: _1  and  _3
REMARK    2  A    between atoms: _3  and  _4
REMARK    3  A    between atoms: _3  and  _6
REMARK    4  A    between atoms: _6  and  _7
REMARK    5  A    between atoms: _7  and  _8
REMARK    6  A    between atoms: _10  and  _12
REMARK    7  A    between atoms: _12  and  _13
REMARK    8  A    between atoms: _12  and  _15
REMARK    9  A    between atoms: _15  and  _16
REMARK   10  A    between atoms: _19  and  _21
REMARK   11  A    between atoms: _21  and  _22
REMARK   12  A    between atoms: _25  and  _27
REMARK   13  A    between atoms: _27  and  _28
REMARK   14  A    between atoms: _27  and  _30
REMARK   15  A    between atoms: _30  and  _31
REMARK   16  A    between atoms: _31  and  _32
REMARK   17  A    between atoms: _37  and  _39
REMARK   18  A    between atoms: _39  and  _40
REMARK   19  A    between atoms: _39  and  _42
REMARK   20  A    between atoms: _42  and  _43
REMARK   21  A    between atoms: _48  and  _49
REMARK   22  A    between atoms: _51  and  _53
REMARK   23  A    between atoms: _53  and  _54
REMARK   24  A    between atoms: _53  and  _56
REMARK   25  A    between atoms: _59  and  _61
REMARK   26  A    between atoms: _61  and  _62
REMARK   27  A    between atoms: _61  and  _64
REMARK   28  A    between atoms: _67  and  _69
REMARK   29  A    between atoms: _69  and  _70
REMARK   30  A    between atoms: _69  and  _72
REMARK   31  A    between atoms: _72  and  _73
REMARK   32  A    between atoms: _79  and  _81
REMARK   33  A    between atoms: _81  and  _82
REMARK   34  A    between atoms: _81  and  _84
REMARK   35  A    between atoms: _84  and  _85
REMARK   36  A    between atoms: _88  and  _90
REMARK   37  A    between atoms: _90  and  _91
REMARK   38  A    between atoms: _90  and  _93
REMARK   39  A    between atoms: _93  and  _94
REMARK   40  A    between atoms: _97  and  _99
REMARK   41  A    between atoms: _99  and  _100
REMARK   42  A    between atoms: _102  and  _104
REMARK   43  A    between atoms: _104  and  _105
REMARK   44  A    between atoms: _104  and  _107
REMARK   45  A    between atoms: _107  and  _108
REMARK   46  A    between atoms: _110  and  _112
REMARK   47  A    between atoms: _112  and  _113
REMARK   48  A    between atoms: _112  and  _115
REMARK   49  A    between atoms: _115  and  _116
REMARK   50  A    between atoms: _118  and  _120
REMARK   51  A    between atoms: _120  and  _121
REMARK   52  A    between atoms: _120  and  _123
REMARK   53  A    between atoms: _123  and  _124
REMARK   54  A    between atoms: _129  and  _131
REMARK   55  A    between atoms: _131  and  _132
REMARK   56  A    between atoms: _131  and  _134
REMARK   57  A    between atoms: _134  and  _135
REMARK   58  A    between atoms: _145  and  _147
REMARK   59  A    between atoms: _147  and  _148
REMARK   60  A    between atoms: _147  and  _150
REMARK   61  A    between atoms: _150  and  _151
REMARK   62  A    between atoms: _154  and  _156
REMARK   63  A    between atoms: _156  and  _157
REMARK   64  A    between atoms: _156  and  _159
REMARK   65  A    between atoms: _159  and  _160
REMARK   66  A    between atoms: _163  and  _165
REMARK   67  A    between atoms: _165  and  _166
REMARK   68  A    between atoms: _165  and  _168
REMARK   69  A    between atoms: _168  and  _169
REMARK   70  A    between atoms: _174  and  _176
REMARK   71  A    between atoms: _176  and  _177
REMARK   72  A    between atoms: _176  and  _179
REMARK   73  A    between atoms: _179  and  _180
REMARK   74  A    between atoms: _185  and  _186
REMARK   75  A    between atoms: _188  and  _190
REMARK   76  A    between atoms: _190  and  _191
REMARK   77  A    between atoms: _193  and  _195
REMARK   78  A    between atoms: _195  and  _196
REMARK   79  A    between atoms: _195  and  _198
REMARK   80  A    between atoms: _198  and  _199
REMARK   81  A    between atoms: _201  and  _203
REMARK   82  A    between atoms: _203  and  _204
REMARK   83  A    between atoms: _206  and  _208
REMARK   84  A    between atoms: _208  and  _209
REMARK   85  A    between atoms: _208  and  _211
REMARK   86  A    between atoms: _211  and  _212
REMARK   87  A    between atoms: _214  and  _216
REMARK   88  A    between atoms: _216  and  _217
REMARK   89  A    between atoms: _216  and  _219
REMARK   90  A    between atoms: _219  and  _220
REMARK   91  A    between atoms: _223  and  _225
REMARK   92  A    between atoms: _225  and  _226
REMARK   93  A    between atoms: _225  and  _228
REMARK   94  A    between atoms: _228  and  _229
REMARK   95  A    between atoms: _232  and  _234
REMARK   96  A    between atoms: _234  and  _235
REMARK   97  A    between atoms: _234  and  _237
REMARK   98  A    between atoms: _237  and  _238
REMARK   99  A    between atoms: _244  and  _246
REMARK  100  A    between atoms: _246  and  _247
REMARK  101  A    between atoms: _250  and  _252
REMARK  102  A    between atoms: _252  and  _253
REMARK  103  A    between atoms: _256  and  _258
REMARK  104  A    between atoms: _258  and  _259
REMARK  105  A    between atoms: _258  and  _261
REMARK  106  A    between atoms: _261  and  _262
REMARK  107  A    between atoms: _262  and  _263
REMARK  108  A    between atoms: _263  and  _264
REMARK  109  A    between atoms: _264  and  _265
REMARK  110  A    between atoms: _269  and  _271
REMARK  111  A    between atoms: _271  and  _272
REMARK  112  A    between atoms: _271  and  _274
REMARK  113  A    between atoms: _274  and  _275
REMARK  114  A    between atoms: _281  and  _283
REMARK  115  A    between atoms: _283  and  _284
REMARK  116  A    between atoms: _286  and  _288
REMARK  117  A    between atoms: _288  and  _289
REMARK  118  A    between atoms: _288  and  _291
REMARK  119  A    between atoms: _291  and  _292
REMARK  120  A    between atoms: _295  and  _297
REMARK  121  A    between atoms: _297  and  _298
REMARK  122  A    between atoms: _297  and  _300
REMARK  123  A    between atoms: _300  and  _301
REMARK  124  A    between atoms: _304  and  _306
REMARK  125  A    between atoms: _306  and  _307
REMARK  126  A    between atoms: _306  and  _309
REMARK  127  A    between atoms: _309  and  _310
REMARK  128  A    between atoms: _310  and  _311
REMARK  129  A    between atoms: _313  and  _315
REMARK  130  A    between atoms: _315  and  _316
REMARK  131  A    between atoms: _319  and  _321
REMARK  132  A    between atoms: _321  and  _322
REMARK  133  A    between atoms: _321  and  _324
REMARK  134  A    between atoms: _324  and  _325
REMARK  135  A    between atoms: _328  and  _330
REMARK  136  A    between atoms: _330  and  _331
REMARK  137  A    between atoms: _330  and  _333
REMARK  138  A    between atoms: _333  and  _334
REMARK  139  A    between atoms: _336  and  _338
REMARK  140  A    between atoms: _338  and  _339
REMARK  141  A    between atoms: _338  and  _341
REMARK  142  A    between atoms: _344  and  _346
REMARK  143  A    between atoms: _346  and  _347
REMARK  144  A    between atoms: _346  and  _349
REMARK  145  A    between atoms: _349  and  _350
REMARK  146  A    between atoms: _350  and  _351
REMARK  147  A    between atoms: _351  and  _352
REMARK  148  A    between atoms: _361  and  _363
REMARK  149  A    between atoms: _363  and  _364
REMARK  150  A    between atoms: _363  and  _366
REMARK  151  A    between atoms: _366  and  _367
REMARK  152  A    between atoms: _367  and  _368
REMARK  153  A    between atoms: _368  and  _369
REMARK  154  A    between atoms: _378  and  _380
REMARK  155  A    between atoms: _380  and  _381
REMARK  156  A    between atoms: _380  and  _383
REMARK  157  A    between atoms: _383  and  _384
REMARK  158  A    between atoms: _389  and  _390
REMARK  159  A    between atoms: _392  and  _394
REMARK  160  A    between atoms: _394  and  _395
REMARK  161  A    between atoms: _394  and  _397
REMARK  162  A    between atoms: _397  and  _398
REMARK  163  A    between atoms: _398  and  _399
REMARK  164  A    between atoms: _404  and  _406
REMARK  165  A    between atoms: _406  and  _407
REMARK  166  A    between atoms: _406  and  _409
REMARK  167  A    between atoms: _409  and  _410
REMARK  168  A    between atoms: _413  and  _415
REMARK  169  A    between atoms: _415  and  _416
REMARK  170  A    between atoms: _415  and  _418
REMARK  171  A    between atoms: _421  and  _423
REMARK  172  A    between atoms: _423  and  _424
REMARK  173  A    between atoms: _423  and  _426
REMARK  174  A    between atoms: _426  and  _427
REMARK  175  A    between atoms: _430  and  _432
REMARK  176  A    between atoms: _432  and  _433
REMARK  177  A    between atoms: _432  and  _435
REMARK  178  A    between atoms: _435  and  _436
REMARK  179  A    between atoms: _439  and  _441
REMARK  180  A    between atoms: _441  and  _442
REMARK  181  A    between atoms: _444  and  _446
REMARK  182  A    between atoms: _446  and  _447
REMARK  183  A    between atoms: _446  and  _449
REMARK  184  A    between atoms: _449  and  _450
REMARK  185  A    between atoms: _453  and  _455
REMARK  186  A    between atoms: _455  and  _456
REMARK  187  A    between atoms: _455  and  _458
REMARK  188  A    between atoms: _458  and  _459
REMARK  189  A    between atoms: _461  and  _463
REMARK  190  A    between atoms: _463  and  _464
REMARK  191  A    between atoms: _463  and  _466
REMARK  192  A    between atoms: _466  and  _467
REMARK  193  A    between atoms: _470  and  _472
REMARK  194  A    between atoms: _472  and  _473
REMARK  195  A    between atoms: _472  and  _475
REMARK  196  A    between atoms: _475  and  _476
REMARK  197  A    between atoms: _476  and  _477
REMARK  198  A    between atoms: _479  and  _481
REMARK  199  A    between atoms: _481  and  _482
REMARK  200  A    between atoms: _481  and  _484
REMARK  201  A    between atoms: _487  and  _489
REMARK  202  A    between atoms: _489  and  _490
REMARK  203  A    between atoms: _489  and  _492
REMARK  204  A    between atoms: _492  and  _493
REMARK  205  A    between atoms: _496  and  _498
REMARK  206  A    between atoms: _498  and  _499
REMARK  207  A    between atoms: _498  and  _501
REMARK  208  A    between atoms: _501  and  _502
REMARK  209  A    between atoms: _502  and  _503
REMARK  210  A    between atoms: _508  and  _510
REMARK  211  A    between atoms: _510  and  _511
REMARK  212  A    between atoms: _510  and  _513
REMARK  213  A    between atoms: _513  and  _514
REMARK  214  A    between atoms: _514  and  _515
REMARK  215  A    between atoms: _518  and  _520
REMARK  216  A    between atoms: _520  and  _521
REMARK  217  A    between atoms: _520  and  _523
REMARK  218  A    between atoms: _523  and  _524
REMARK  219  A    between atoms: _527  and  _529
REMARK  220  A    between atoms: _529  and  _530
REMARK  221  A    between atoms: _529  and  _532
REMARK  222  A    between atoms: _535  and  _537
REMARK  223  A    between atoms: _537  and  _538
REMARK  224  A    between atoms: _537  and  _540
REMARK  225  A    between atoms: _540  and  _541
REMARK  226  A    between atoms: _544  and  _546
REMARK  227  A    between atoms: _546  and  _547
REMARK  228  A    between atoms: _546  and  _549
REMARK  229  A    between atoms: _549  and  _550
REMARK  230  A    between atoms: _552  and  _554
REMARK  231  A    between atoms: _554  and  _555
REMARK  232  A    between atoms: _554  and  _557
REMARK  233  A    between atoms: _557  and  _558
REMARK  234  A    between atoms: _558  and  _559
REMARK  235  A    between atoms: _561  and  _563
REMARK  236  A    between atoms: _563  and  _564
REMARK  237  A    between atoms: _563  and  _566
REMARK  238  A    between atoms: _566  and  _567
REMARK  239  A    between atoms: _567  and  _568
REMARK  240  A    between atoms: _570  and  _572
REMARK  241  A    between atoms: _572  and  _573
REMARK  242  A    between atoms: _572  and  _575
REMARK  243  A    between atoms: _575  and  _576
REMARK  244  A    between atoms: _579  and  _581
REMARK  245  A    between atoms: _581  and  _582
REMARK  246  A    between atoms: _581  and  _584
REMARK  247  A    between atoms: _584  and  _585
REMARK  248  A    between atoms: _589  and  _590
REMARK  249  A    between atoms: _595  and  _597
REMARK  250  A    between atoms: _597  and  _598
REMARK  251  A    between atoms: _597  and  _600
REMARK  252  A    between atoms: _600  and  _601
REMARK  253  A    between atoms: _603  and  _605
REMARK  254  A    between atoms: _605  and  _606
REMARK  255  A    between atoms: _608  and  _610
REMARK  256  A    between atoms: _610  and  _611
REMARK  257  A    between atoms: _610  and  _613
REMARK  258  A    between atoms: _613  and  _614
REMARK  259  A    between atoms: _617  and  _619
REMARK  260  A    between atoms: _619  and  _620
REMARK  261  A    between atoms: _619  and  _622
REMARK  262  A    between atoms: _622  and  _623
REMARK  263  A    between atoms: _626  and  _628
REMARK  264  A    between atoms: _628  and  _629
REMARK  265  A    between atoms: _631  and  _633
REMARK  266  A    between atoms: _633  and  _634
REMARK  267  A    between atoms: _633  and  _636
REMARK  268  A    between atoms: _636  and  _637
REMARK                            x       y       z     vdW  Elec       q    Type
REMARK                         _______ _______ _______ _____ _____    ______ ____
ROOT
ATOM      1  CB  GLN A   1      25.781 101.811  21.767  0.00  0.00    +0.035 C 
ENDROOT
BRANCH   1   2
ATOM      2  CA  GLN A   1      25.836 100.342  22.022  0.00  0.00    +0.134 C 
BRANCH   2   3
ATOM      3  N   GLN A   1      24.556  99.783  22.396  0.00  0.00    -0.239 NA
ATOM      4  H   GLN A   1      23.900 100.366  22.953  0.00  0.00    +0.142 HD
ENDBRANCH   2   3
BRANCH   2   5
ATOM      5  C   GLN A   1      26.847 100.168  23.093  0.00  0.00    +0.224 C 
ATOM      6  O   GLN A   1      26.522 100.280  24.276  0.00  0.00    -0.287 OA
ENDBRANCH   2   5
ENDBRANCH   1   2
BRANCH   1   7
ATOM      7  CG  GLN A   1      25.622 102.105  20.308  0.00  0.00    +0.087 C 
BRANCH   7   8
ATOM      8  CD  GLN A   1      25.928 103.545  19.971  0.00  0.00    +0.219 C 
ATOM      9  OE1 GLN A   1      26.846 104.108  20.551  0.00  0.00    -0.275 OA
ATOM     10  NE2 GLN A   1      25.259 104.159  19.010  0.00  0.00    -0.329 N 
ATOM     11 HE21 GLN A   1      25.511 105.131  18.740  0.00  0.00    +0.145 HD
ATOM     12 HE22 GLN A   1      24.480 103.670  18.524  0.00  0.00    +0.145 HD
ENDBRANCH   7   8
ENDBRANCH   1   7
TORSDOF 5
REMARK  Name = ../refined-set-2016/1lyb/1lyb_pocket.pdb
REMARK  268 active torsions:
REMARK  status: ('A' for Active; 'I' for Inactive)
REMARK    1  A    between atoms: _1  and  _3
REMARK    2  A    between atoms: _3  and  _4
REMARK    3  A    between atoms: _3  and  _6
REMARK    4  A    between atoms: _6  and  _7
REMARK    5  A    between atoms: _7  and  _8
REMARK    6  A    between atoms: _10  and  _12
REMARK    7  A    between atoms: _12  and  _13
REMARK    8  A    between atoms: _12  and  _15
REMARK    9  A    between atoms: _15  and  _16
REMARK   10  A    between atoms: _19  and  _21
REMARK   11  A    between atoms: _21  and  _22
REMARK   12  A    between atoms: _25  and  _27
REMARK   13  A    between atoms: _27  and  _28
REMARK   14  A    between atoms: _27  and  _30
REMARK   15  A    between atoms: _30  and  _31
REMARK   16  A    between atoms: _31  and  _32
REMARK   17  A    between atoms: _37  and  _39
REMARK   18  A    between atoms: _39  and  _40
REMARK   19  A    between atoms: _39  and  _42
REMARK   20  A    between atoms: _42  and  _43
REMARK   21  A    between atoms: _48  and  _49
REMARK   22  A    between atoms: _51  and  _53
REMARK   23  A    between atoms: _53  and  _54
REMARK   24  A    between atoms: _53  and  _56
REMARK   25  A    between atoms: _59  and  _61
REMARK   26  A    between atoms: _61  and  _62
REMARK   27  A    between atoms: _61  and  _64
REMARK   28  A    between atoms: _67  and  _69
REMARK   29  A    between atoms: _69  and  _70
REMARK   30  A    between atoms: _69  and  _72
REMARK   31  A    between atoms: _72  and  _73
REMARK   32  A    between atoms: _79  and  _81
REMARK   33  A    between atoms: _81  and  _82
REMARK   34  A    between atoms: _81  and  _84
REMARK   35  A    between atoms: _84  and  _85
REMARK   36  A    between atoms: _88  and  _90
REMARK   37  A    between atoms: _90  and  _91
REMARK   38  A    between atoms: _90  and  _93
REMARK   39  A    between atoms: _93  and  _94
REMARK   40  A    between atoms: _97  and  _99
REMARK   41  A    between atoms: _99  and  _100
REMARK   42  A    between atoms: _102  and  _104
REMARK   43  A    between atoms: _104  and  _105
REMARK   44  A    between atoms: _104  and  _107
REMARK   45  A    between atoms: _107  and  _108
REMARK   46  A    between atoms: _110  and  _112
REMARK   47  A    between atoms: _112  and  _113
REMARK   48  A    between atoms: _112  and  _115
REMARK   49  A    between atoms: _115  and  _116
REMARK   50  A    between atoms: _118  and  _120
REMARK   51  A    between atoms: _120  and  _121
REMARK   52  A    between atoms: _120  and  _123
REMARK   53  A    between atoms: _123  and  _124
REMARK   54  A    between atoms: _129  and  _131
REMARK   55  A    between atoms: _131  and  _132
REMARK   56  A    between atoms: _131  and  _134
REMARK   57  A    between atoms: _134  and  _135
REMARK   58  A    between atoms: _145  and  _147
REMARK   59  A    between atoms: _147  and  _148
REMARK   60  A    between atoms: _147  and  _150
REMARK   61  A    between atoms: _150  and  _151
REMARK   62  A    between atoms: _154  and  _156
REMARK   63  A    between atoms: _156  and  _157
REMARK   64  A    between atoms: _156  and  _159
REMARK   65  A    between atoms: _159  and  _160
REMARK   66  A    between atoms: _163  and  _165
REMARK   67  A    between atoms: _165  and  _166
REMARK   68  A    between atoms: _165  and  _168
REMARK   69  A    between atoms: _168  and  _169
REMARK   70  A    between atoms: _174  and  _176
REMARK   71  A    between atoms: _176  and  _177
REMARK   72  A    between atoms: _176  and  _179
REMARK   73  A    between atoms: _179  and  _180
REMARK   74  A    between atoms: _185  and  _186
REMARK   75  A    between atoms: _188  and  _190
REMARK   76  A    between atoms: _190  and  _191
REMARK   77  A    between atoms: _193  and  _195
REMARK   78  A    between atoms: _195  and  _196
REMARK   79  A    between atoms: _195  and  _198
REMARK   80  A    between atoms: _198  and  _199
REMARK   81  A    between atoms: _201  and  _203
REMARK   82  A    between atoms: _203  and  _204
REMARK   83  A    between atoms: _206  and  _208
REMARK   84  A    between atoms: _208  and  _209
REMARK   85  A    between atoms: _208  and  _211
REMARK   86  A    between atoms: _211  and  _212
REMARK   87  A    between atoms: _214  and  _216
REMARK   88  A    between atoms: _216  and  _217
REMARK   89  A    between atoms: _216  and  _219
REMARK   90  A    between atoms: _219  and  _220
REMARK   91  A    between atoms: _223  and  _225
REMARK   92  A    between atoms: _225  and  _226
REMARK   93  A    between atoms: _225  and  _228
REMARK   94  A    between atoms: _228  and  _229
REMARK   95  A    between atoms: _232  and  _234
REMARK   96  A    between atoms: _234  and  _235
REMARK   97  A    between atoms: _234  and  _237
REMARK   98  A    between atoms: _237  and  _238
REMARK   99  A    between atoms: _244  and  _246
REMARK  100  A    between atoms: _246  and  _247
REMARK  101  A    between atoms: _250  and  _252
REMARK  102  A    between atoms: _252  and  _253
REMARK  103  A    between atoms: _256  and  _258
REMARK  104  A    between atoms: _258  and  _259
REMARK  105  A    between atoms: _258  and  _261
REMARK  106  A    between atoms: _261  and  _262
REMARK  107  A    between atoms: _262  and  _263
REMARK  108  A    between atoms: _263  and  _264
REMARK  109  A    between atoms: _264  and  _265
REMARK  110  A    between atoms: _269  and  _271
REMARK  111  A    between atoms: _271  and  _272
REMARK  112  A    between atoms: _271  and  _274
REMARK  113  A    between atoms: _274  and  _275
REMARK  114  A    between atoms: _281  and  _283
REMARK  115  A    between atoms: _283  and  _284
REMARK  116  A    between atoms: _286  and  _288
REMARK  117  A    between atoms: _288  and  _289
REMARK  118  A    between atoms: _288  and  _291
REMARK  119  A    between atoms: _291  and  _292
REMARK  120  A    between atoms: _295  and  _297
REMARK  121  A    between atoms: _297  and  _298
REMARK  122  A    between atoms: _297  and  _300
REMARK  123  A    between atoms: _300  and  _301
REMARK  124  A    between atoms: _304  and  _306
REMARK  125  A    between atoms: _306  and  _307
REMARK  126  A    between atoms: _306  and  _309
REMARK  127  A    between atoms: _309  and  _310
REMARK  128  A    between atoms: _310  and  _311
REMARK  129  A    between atoms: _313  and  _315
REMARK  130  A    between atoms: _315  and  _316
REMARK  131  A    between atoms: _319  and  _321
REMARK  132  A    between atoms: _321  and  _322
REMARK  133  A    between atoms: _321  and  _324
REMARK  134  A    between atoms: _324  and  _325
REMARK  135  A    between atoms: _328  and  _330
REMARK  136  A    between atoms: _330  and  _331
REMARK  137  A    between atoms: _330  and  _333
REMARK  138  A    between atoms: _333  and  _334
REMARK  139  A    between atoms: _336  and  _338
REMARK  140  A    between atoms: _338  and  _339
REMARK  141  A    between atoms: _338  and  _341
REMARK  142  A    between atoms: _344  and  _346
REMARK  143  A    between atoms: _346  and  _347
REMARK  144  A    between atoms: _346  and  _349
REMARK  145  A    between atoms: _349  and  _350
REMARK  146  A    between atoms: _350  and  _351
REMARK  147  A    between atoms: _351  and  _352
REMARK  148  A    between atoms: _361  and  _363
REMARK  149  A    between atoms: _363  and  _364
REMARK  150  A    between atoms: _363  and  _366
REMARK  151  A    between atoms: _366  and  _367
REMARK  152  A    between atoms: _367  and  _368
REMARK  153  A    between atoms: _368  and  _369
REMARK  154  A    between atoms: _378  and  _380
REMARK  155  A    between atoms: _380  and  _381
REMARK  156  A    between atoms: _380  and  _383
REMARK  157  A    between atoms: _383  and  _384
REMARK  158  A    between atoms: _389  and  _390
REMARK  159  A    between atoms: _392  and  _394
REMARK  160  A    between atoms: _394  and  _395
REMARK  161  A    between atoms: _394  and  _397
REMARK  162  A    between atoms: _397  and  _398
REMARK  163  A    between atoms: _398  and  _399
REMARK  164  A    between atoms: _404  and  _406
REMARK  165  A    between atoms: _406  and  _407
REMARK  166  A    between atoms: _406  and  _409
REMARK  167  A    between atoms: _409  and  _410
REMARK  168  A    between atoms: _413  and  _415
REMARK  169  A    between atoms: _415  and  _416
REMARK  170  A    between atoms: _415  and  _418
REMARK  171  A    between atoms: _421  and  _423
REMARK  172  A    between atoms: _423  and  _424
REMARK  173  A    between atoms: _423  and  _426
REMARK  174  A    between atoms: _426  and  _427
REMARK  175  A    between atoms: _430  and  _432
REMARK  176  A    between atoms: _432  and  _433
REMARK  177  A    between atoms: _432  and  _435
REMARK  178  A    between atoms: _435  and  _436
REMARK  179  A    between atoms: _439  and  _441
REMARK  180  A    between atoms: _441  and  _442
REMARK  181  A    between atoms: _444  and  _446
REMARK  182  A    between atoms: _446  and  _447
REMARK  183  A    between atoms: _446  and  _449
REMARK  184  A    between atoms: _449  and  _450
REMARK  185  A    between atoms: _453  and  _455
REMARK  186  A    between atoms: _455  and  _456
REMARK  187  A    between atoms: _455  and  _458
REMARK  188  A    between atoms: _458  and  _459
REMARK  189  A    between atoms: _461  and  _463
REMARK  190  A    between atoms: _463  and  _464
REMARK  191  A    between atoms: _463  and  _466
REMARK  192  A    between atoms: _466  and  _467
REMARK  193  A    between atoms: _470  and  _472
REMARK  194  A    between atoms: _472  and  _473
REMARK  195  A    between atoms: _472  and  _475
REMARK  196  A    between atoms: _475  and  _476
REMARK  197  A    between atoms: _476  and  _477
REMARK  198  A    between atoms: _479  and  _481
REMARK  199  A    between atoms: _481  and  _482
REMARK  200  A    between atoms: _481  and  _484
REMARK  201  A    between atoms: _487  and  _489
REMARK  202  A    between atoms: _489  and  _490
REMARK  203  A    between atoms: _489  and  _492
REMARK  204  A    between atoms: _492  and  _493
REMARK  205  A    between atoms: _496  and  _498
REMARK  206  A    between atoms: _498  and  _499
REMARK  207  A    between atoms: _498  and  _501
REMARK  208  A    between atoms: _501  and  _502
REMARK  209  A    between atoms: _502  and  _503
REMARK  210  A    between atoms: _508  and  _510
REMARK  211  A    between atoms: _510  and  _511
REMARK  212  A    between atoms: _510  and  _513
REMARK  213  A    between atoms: _513  and  _514
REMARK  214  A    between atoms: _514  and  _515
REMARK  215  A    between atoms: _518  and  _520
REMARK  216  A    between atoms: _520  and  _521
REMARK  217  A    between atoms: _520  and  _523
REMARK  218  A    between atoms: _523  and  _524
REMARK  219  A    between atoms: _527  and  _529
REMARK  220  A    between atoms: _529  and  _530
REMARK  221  A    between atoms: _529  and  _532
REMARK  222  A    between atoms: _535  and  _537
REMARK  223  A    between atoms: _537  and  _538
REMARK  224  A    between atoms: _537  and  _540
REMARK  225  A    between atoms: _540  and  _541
REMARK  226  A    between atoms: _544  and  _546
REMARK  227  A    between atoms: _546  and  _547
REMARK  228  A    between atoms: _546  and  _549
REMARK  229  A    between atoms: _549  and  _550
REMARK  230  A    between atoms: _552  and  _554
REMARK  231  A    between atoms: _554  and  _555
REMARK  232  A    between atoms: _554  and  _557
REMARK  233  A    between atoms: _557  and  _558
REMARK  234  A    between atoms: _558  and  _559
REMARK  235  A    between atoms: _561  and  _563
REMARK  236  A    between atoms: _563  and  _564
REMARK  237  A    between atoms: _563  and  _566
REMARK  238  A    between atoms: _566  and  _567
REMARK  239  A    between atoms: _567  and  _568
REMARK  240  A    between atoms: _570  and  _572
REMARK  241  A    between atoms: _572  and  _573
REMARK  242  A    between atoms: _572  and  _575
REMARK  243  A    between atoms: _575  and  _576
REMARK  244  A    between atoms: _579  and  _581
REMARK  245  A    between atoms: _581  and  _582
REMARK  246  A    between atoms: _581  and  _584
REMARK  247  A    between atoms: _584  and  _585
REMARK  248  A    between atoms: _589  and  _590
REMARK  249  A    between atoms: _595  and  _597
REMARK  250  A    between atoms: _597  and  _598
REMARK  251  A    between atoms: _597  and  _600
REMARK  252  A    between atoms: _600  and  _601
REMARK  253  A    between atoms: _603  and  _605
REMARK  254  A    between atoms: _605  and  _606
REMARK  255  A    between atoms: _608  and  _610
REMARK  256  A    between atoms: _610  and  _611
REMARK  257  A    between atoms: _610  and  _613
REMARK  258  A    between atoms: _613  and  _614
REMARK  259  A    between atoms: _617  and  _619
REMARK  260  A    between atoms: _619  and  _620
REMARK  261  A    between atoms: _619  and  _622
REMARK  262  A    between atoms: _622  and  _623
REMARK  263  A    between atoms: _626  and  _628
REMARK  264  A    between atoms: _628  and  _629
REMARK  265  A    between atoms: _631  and  _633
REMARK  266  A    between atoms: _633  and  _634
REMARK  267  A    between atoms: _633  and  _636
REMARK  268  A    between atoms: _636  and  _637
REMARK                            x       y       z     vdW  Elec       q    Type
REMARK                         _______ _______ _______ _____ _____    ______ ____
ROOT
ATOM      1  C   GLY A   5      21.034  91.024  12.364  0.00  0.00    +0.243 C 
ATOM      2  N   THR A   6      22.338  90.889  12.600  0.00  0.00    -0.295 N 
ATOM      3  H   THR A   6      22.656  90.521  13.519  0.00  0.00    +0.150 HD
ATOM      4  O   GLY A   5      20.624  91.573  11.327  0.00  0.00    -0.273 OA
ENDROOT
BRANCH   1   5
ATOM      5  CA  GLY A   5      20.064  90.561  13.438  0.00  0.00    +0.176 C 
BRANCH   5   8
ATOM      6  C   THR A   4      21.234  89.681  15.390  0.00  0.00    +0.243 C 
ATOM      7  O   THR A   4      21.460  88.635  14.792  0.00  0.00    -0.273 OA
ATOM      8  N   GLY A   5      20.607  90.684  14.779  0.00  0.00    -0.295 N 
ATOM      9  H   GLY A   5      20.502  91.589  15.281  0.00  0.00    +0.150 HD
BRANCH   6  10
ATOM     10  CA  THR A   4      21.771  89.838  16.795  0.00  0.00    +0.176 C 
BRANCH  10  12
ATOM     11  C   ASP A   3      23.058  91.858  16.604  0.00  0.00    +0.241 C 
ATOM     12  N   THR A   4      21.981  91.231  17.087  0.00  0.00    -0.295 N 
ATOM     13  H   THR A   4      21.296  91.749  17.673  0.00  0.00    +0.150 HD
ATOM     14  O   ASP A   3      23.825  91.308  15.830  0.00  0.00    -0.273 OA
BRANCH  11  15
ATOM     15  CA  ASP A   3      23.275  93.297  16.946  0.00  0.00    +0.160 C 
BRANCH  15  18
ATOM     16  C   VAL A   2      24.495  94.113  18.880  0.00  0.00    +0.241 C 
ATOM     17  O   VAL A   2      23.422  94.289  19.473  0.00  0.00    -0.273 OA
ATOM     18  N   ASP A   3      24.492  93.483  17.703  0.00  0.00    -0.297 N 
ATOM     19  H   ASP A   3      25.388  93.117  17.321  0.00  0.00    +0.150 HD
BRANCH  16  20
ATOM     20  CA  VAL A   2      25.839  94.534  19.511  0.00  0.00    +0.148 C 
BRANCH  20  22
ATOM     21  C   ILE A   1      26.502  96.662  18.476  0.00  0.00    +0.238 C 
ATOM     22  N   VAL A   2      25.861  95.987  19.435  0.00  0.00    -0.297 N 
ATOM     23  H   VAL A   2      25.352  96.527  20.164  0.00  0.00    +0.150 HD
ATOM     24  O   ILE A   1      27.176  96.070  17.616  0.00  0.00    -0.274 OA
BRANCH  21  25
ATOM     25  CA  ILE A   1      26.431  98.190  18.467  0.00  0.00    +0.145 C 
BRANCH  25  26
ATOM     26  CB  ILE A   1      25.257  98.668  17.541  0.00  0.00    +0.025 C 
ATOM     27  CG2 ILE A   1      25.312 100.179  17.542  0.00  0.00    +0.002 C 
BRANCH  26  28
ATOM     28  CG1 ILE A   1      25.341  98.182  16.099  0.00  0.00    +0.002 C 
ATOM     29  CD1 ILE A   1      24.062  98.424  15.250  0.00  0.00    +0.000 C 
ENDBRANCH  26  28
ENDBRANCH  25  26
BRANCH  25  30
ATOM     30  N   ILE A   1      27.724  98.645  17.993  0.00  0.00    -0.238 NA
ATOM     31  H   ILE A   1      27.940  98.605  16.976  0.00  0.00    +0.142 HD
ENDBRANCH  25  30
ENDBRANCH  21  25
ENDBRANCH  20  22
BRANCH  20  32
ATOM     32  CB  VAL A   2      25.940  94.098  20.995  0.00  0.00    +0.027 C 
ATOM     33  CG2 VAL A   2      27.101  94.764  21.728  0.00  0.00    +0.002 C 
ATOM     34  CG1 VAL A   2      26.126  92.589  21.016  0.00  0.00    +0.002 C 
ENDBRANCH  20  32
ENDBRANCH  16  20
ENDBRANCH  15  18
BRANCH  15  35
ATOM     35  CB  ASP A   3      23.387  94.110  15.682  0.00  0.00    +0.143 C 
BRANCH  35  36
ATOM     36  CG  ASP A   3      22.094  94.290  14.929  0.00  0.00    +0.367 C 
ATOM     37  OD2 ASP A   3      21.154  93.552  15.123  0.00  0.00    -0.246 OA
ATOM     38  OD1 ASP A   3      22.014  95.202  14.112  0.00  0.00    -0.246 OA
ENDBRANCH  35  36
ENDBRANCH  15  35
ENDBRANCH  11  15
ENDBRANCH  10  12
BRANCH  10  39
ATOM     39  CB  THR A   4      20.787  89.219  17.786  0.00  0.00    +0.137 C 
ATOM     40  CG2 THR A   4      21.442  88.771  19.063  0.00  0.00    +0.034 C 
BRANCH  39  41
ATOM     41  OG1 THR A   4      19.822  90.214  18.059  0.00  0.00    -0.382 OA
ATOM     42  HG1 THR A   4      20.269  91.007  18.449  0.00  0.00    +0.210 HD
ENDBRANCH  39  41
ENDBRANCH  10  39
ENDBRANCH   6  10
ENDBRANCH   5   8
ENDBRANCH   1   5
BRANCH   2  43
ATOM     43  CA  THR A   6      23.314  91.245  11.602  0.00  0.00    +0.176 C 
BRANCH  43  44
ATOM     44  C   THR A   6      24.220  90.043  11.584  0.00  0.00    +0.243 C 
ATOM     45  O   THR A   6      24.707  89.586  12.617  0.00  0.00    -0.273 OA
ATOM     46  N   SER A   7      24.420  89.512  10.397  0.00  0.00    -0.295 N 
ATOM     47  H   SER A   7      24.086  90.006   9.545  0.00  0.00    +0.150 HD
BRANCH  46  48
ATOM     48  CA  SER A   7      25.098  88.252  10.274  0.00  0.00    +0.178 C 
BRANCH  48  49
ATOM     49  C   SER A   7      26.571  88.320  10.503  0.00  0.00    +0.243 C 
ATOM     50  O   SER A   7      27.096  87.667  11.406  0.00  0.00    -0.273 OA
ATOM     51  N   LEU A   8      27.190  89.216   9.734  0.00  0.00    -0.297 N 
ATOM     52  H   LEU A   8      26.610  89.815   9.113  0.00  0.00    +0.150 HD
BRANCH  51  53
ATOM     53  CA  LEU A   8      28.630  89.401   9.717  0.00  0.00    +0.149 C 
BRANCH  53  54
ATOM     54  C   LEU A   8      29.114  90.500  10.681  0.00  0.00    +0.241 C 
ATOM     55  O   LEU A   8      28.312  91.054  11.428  0.00  0.00    -0.273 OA
ATOM     56  N   MET A   9      30.391  90.847  10.779  0.00  0.00    -0.297 N 
ATOM     57  H   MET A   9      31.098  90.309  10.238  0.00  0.00    +0.150 HD
BRANCH  56  58
ATOM     58  CA  MET A   9      30.840  91.948  11.611  0.00  0.00    +0.149 C 
BRANCH  58  59
ATOM     59  C   MET A   9      30.863  93.071  10.605  0.00  0.00    +0.241 C 
ATOM     60  N   VAL A  10      30.339  94.270  10.821  0.00  0.00    -0.298 N 
ATOM     61  H   VAL A  10      29.826  94.493  11.698  0.00  0.00    +0.150 HD
ATOM     62  O   MET A   9      31.380  92.823   9.509  0.00  0.00    -0.273 OA
BRANCH  60  63
ATOM     63  CA  VAL A  10      30.517  95.251   9.775  0.00  0.00    +0.137 C 
BRANCH  63  64
ATOM     64  CB  VAL A  10      29.144  95.782   9.136  0.00  0.00    +0.026 C 
ATOM     65  CG2 VAL A  10      28.830  97.206   9.536  0.00  0.00    +0.002 C 
ATOM     66  CG1 VAL A  10      28.018  94.808   9.479  0.00  0.00    +0.002 C 
ENDBRANCH  63  64
BRANCH  63  67
ATOM     67  C   VAL A  10      31.315  96.368  10.405  0.00  0.00    +0.227 C 
ATOM     68  O   VAL A  10      31.220  96.605  11.614  0.00  0.00    -0.286 OA
ENDBRANCH  63  67
ENDBRANCH  60  63
ENDBRANCH  58  59
BRANCH  58  69
ATOM     69  CB  MET A   9      32.255  91.767  12.111  0.00  0.00    +0.041 C 
BRANCH  69  70
ATOM     70  CG  MET A   9      32.510  90.469  12.836  0.00  0.00    +0.060 C 
BRANCH  70  71
ATOM     71  SD  MET A   9      31.635  90.535  14.403  0.00  0.00    -0.139 S 
ATOM     72  CE  MET A   9      32.884  91.538  15.139  0.00  0.00    +0.069 C 
ENDBRANCH  70  71
ENDBRANCH  69  70
ENDBRANCH  58  69
ENDBRANCH  56  58
ENDBRANCH  53  54
BRANCH  53  73
ATOM     73  CB  LEU A   8      28.998  89.695   8.249  0.00  0.00    +0.029 C 
BRANCH  73  74
ATOM     74  CG  LEU A   8      28.626  88.636   7.187  0.00  0.00    +0.002 C 
ATOM     75  CD2 LEU A   8      29.265  87.316   7.582  0.00  0.00    +0.000 C 
ATOM     76  CD1 LEU A   8      29.070  89.059   5.793  0.00  0.00    +0.000 C 
ENDBRANCH  73  74
ENDBRANCH  53  73
ENDBRANCH  51  53
ENDBRANCH  48  49
BRANCH  48  77
ATOM     77  CB  SER A   7      24.783  87.723   8.915  0.00  0.00    +0.166 C 
BRANCH  77  78
ATOM     78  OG  SER A   7      23.367  87.736   8.832  0.00  0.00    -0.380 OA
ATOM     79  H   SER A   7      23.086  87.394   7.946  0.00  0.00    +0.211 HD
ENDBRANCH  77  78
ENDBRANCH  48  77
ENDBRANCH  46  48
ENDBRANCH  43  44
BRANCH  43  80
ATOM     80  CB  THR A   6      24.022  92.532  12.030  0.00  0.00    +0.137 C 
ATOM     81  CG2 THR A   6      25.063  92.998  11.040  0.00  0.00    +0.034 C 
BRANCH  80  82
ATOM     82  OG1 THR A   6      23.015  93.539  12.081  0.00  0.00    -0.382 OA
ATOM     83  HG1 THR A   6      22.321  93.278  12.737  0.00  0.00    +0.210 HD
ENDBRANCH  80  82
ENDBRANCH  43  80
ENDBRANCH   2  43
TORSDOF 37
REMARK  Name = ../refined-set-2016/1lyb/1lyb_pocket.pdb
REMARK  268 active torsions:
REMARK  status: ('A' for Active; 'I' for Inactive)
REMARK    1  A    between atoms: _1  and  _3
REMARK    2  A    between atoms: _3  and  _4
REMARK    3  A    between atoms: _3  and  _6
REMARK    4  A    between atoms: _6  and  _7
REMARK    5  A    between atoms: _7  and  _8
REMARK    6  A    between atoms: _10  and  _12
REMARK    7  A    between atoms: _12  and  _13
REMARK    8  A    between atoms: _12  and  _15
REMARK    9  A    between atoms: _15  and  _16
REMARK   10  A    between atoms: _19  and  _21
REMARK   11  A    between atoms: _21  and  _22
REMARK   12  A    between atoms: _25  and  _27
REMARK   13  A    between atoms: _27  and  _28
REMARK   14  A    between atoms: _27  and  _30
REMARK   15  A    between atoms: _30  and  _31
REMARK   16  A    between atoms: _31  and  _32
REMARK   17  A    between atoms: _37  and  _39
REMARK   18  A    between atoms: _39  and  _40
REMARK   19  A    between atoms: _39  and  _42
REMARK   20  A    between atoms: _42  and  _43
REMARK   21  A    between atoms: _48  and  _49
REMARK   22  A    between atoms: _51  and  _53
REMARK   23  A    between atoms: _53  and  _54
REMARK   24  A    between atoms: _53  and  _56
REMARK   25  A    between atoms: _59  and  _61
REMARK   26  A    between atoms: _61  and  _62
REMARK   27  A    between atoms: _61  and  _64
REMARK   28  A    between atoms: _67  and  _69
REMARK   29  A    between atoms: _69  and  _70
REMARK   30  A    between atoms: _69  and  _72
REMARK   31  A    between atoms: _72  and  _73
REMARK   32  A    between atoms: _79  and  _81
REMARK   33  A    between atoms: _81  and  _82
REMARK   34  A    between atoms: _81  and  _84
REMARK   35  A    between atoms: _84  and  _85
REMARK   36  A    between atoms: _88  and  _90
REMARK   37  A    between atoms: _90  and  _91
REMARK   38  A    between atoms: _90  and  _93
REMARK   39  A    between atoms: _93  and  _94
REMARK   40  A    between atoms: _97  and  _99
REMARK   41  A    between atoms: _99  and  _100
REMARK   42  A    between atoms: _102  and  _104
REMARK   43  A    between atoms: _104  and  _105
REMARK   44  A    between atoms: _104  and  _107
REMARK   45  A    between atoms: _107  and  _108
REMARK   46  A    between atoms: _110  and  _112
REMARK   47  A    between atoms: _112  and  _113
REMARK   48  A    between atoms: _112  and  _115
REMARK   49  A    between atoms: _115  and  _116
REMARK   50  A    between atoms: _118  and  _120
REMARK   51  A    between atoms: _120  and  _121
REMARK   52  A    between atoms: _120  and  _123
REMARK   53  A    between atoms: _123  and  _124
REMARK   54  A    between atoms: _129  and  _131
REMARK   55  A    between atoms: _131  and  _132
REMARK   56  A    between atoms: _131  and  _134
REMARK   57  A    between atoms: _134  and  _135
REMARK   58  A    between atoms: _145  and  _147
REMARK   59  A    between atoms: _147  and  _148
REMARK   60  A    between atoms: _147  and  _150
REMARK   61  A    between atoms: _150  and  _151
REMARK   62  A    between atoms: _154  and  _156
REMARK   63  A    between atoms: _156  and  _157
REMARK   64  A    between atoms: _156  and  _159
REMARK   65  A    between atoms: _159  and  _160
REMARK   66  A    between atoms: _163  and  _165
REMARK   67  A    between atoms: _165  and  _166
REMARK   68  A    between atoms: _165  and  _168
REMARK   69  A    between atoms: _168  and  _169
REMARK   70  A    between atoms: _174  and  _176
REMARK   71  A    between atoms: _176  and  _177
REMARK   72  A    between atoms: _176  and  _179
REMARK   73  A    between atoms: _179  and  _180
REMARK   74  A    between atoms: _185  and  _186
REMARK   75  A    between atoms: _188  and  _190
REMARK   76  A    between atoms: _190  and  _191
REMARK   77  A    between atoms: _193  and  _195
REMARK   78  A    between atoms: _195  and  _196
REMARK   79  A    between atoms: _195  and  _198
REMARK   80  A    between atoms: _198  and  _199
REMARK   81  A    between atoms: _201  and  _203
REMARK   82  A    between atoms: _203  and  _204
REMARK   83  A    between atoms: _206  and  _208
REMARK   84  A    between atoms: _208  and  _209
REMARK   85  A    between atoms: _208  and  _211
REMARK   86  A    between atoms: _211  and  _212
REMARK   87  A    between atoms: _214  and  _216
REMARK   88  A    between atoms: _216  and  _217
REMARK   89  A    between atoms: _216  and  _219
REMARK   90  A    between atoms: _219  and  _220
REMARK   91  A    between atoms: _223  and  _225
REMARK   92  A    between atoms: _225  and  _226
REMARK   93  A    between atoms: _225  and  _228
REMARK   94  A    between atoms: _228  and  _229
REMARK   95  A    between atoms: _232  and  _234
REMARK   96  A    between atoms: _234  and  _235
REMARK   97  A    between atoms: _234  and  _237
REMARK   98  A    between atoms: _237  and  _238
REMARK   99  A    between atoms: _244  and  _246
REMARK  100  A    between atoms: _246  and  _247
REMARK  101  A    between atoms: _250  and  _252
REMARK  102  A    between atoms: _252  and  _253
REMARK  103  A    between atoms: _256  and  _258
REMARK  104  A    between atoms: _258  and  _259
REMARK  105  A    between atoms: _258  and  _261
REMARK  106  A    between atoms: _261  and  _262
REMARK  107  A    between atoms: _262  and  _263
REMARK  108  A    between atoms: _263  and  _264
REMARK  109  A    between atoms: _264  and  _265
REMARK  110  A    between atoms: _269  and  _271
REMARK  111  A    between atoms: _271  and  _272
REMARK  112  A    between atoms: _271  and  _274
REMARK  113  A    between atoms: _274  and  _275
REMARK  114  A    between atoms: _281  and  _283
REMARK  115  A    between atoms: _283  and  _284
REMARK  116  A    between atoms: _286  and  _288
REMARK  117  A    between atoms: _288  and  _289
REMARK  118  A    between atoms: _288  and  _291
REMARK  119  A    between atoms: _291  and  _292
REMARK  120  A    between atoms: _295  and  _297
REMARK  121  A    between atoms: _297  and  _298
REMARK  122  A    between atoms: _297  and  _300
REMARK  123  A    between atoms: _300  and  _301
REMARK  124  A    between atoms: _304  and  _306
REMARK  125  A    between atoms: _306  and  _307
REMARK  126  A    between atoms: _306  and  _309
REMARK  127  A    between atoms: _309  and  _310
REMARK  128  A    between atoms: _310  and  _311
REMARK  129  A    between atoms: _313  and  _315
REMARK  130  A    between atoms: _315  and  _316
REMARK  131  A    between atoms: _319  and  _321
REMARK  132  A    between atoms: _321  and  _322
REMARK  133  A    between atoms: _321  and  _324
REMARK  134  A    between atoms: _324  and  _325
REMARK  135  A    between atoms: _328  and  _330
REMARK  136  A    between atoms: _330  and  _331
REMARK  137  A    between atoms: _330  and  _333
REMARK  138  A    between atoms: _333  and  _334
REMARK  139  A    between atoms: _336  and  _338
REMARK  140  A    between atoms: _338  and  _339
REMARK  141  A    between atoms: _338  and  _341
REMARK  142  A    between atoms: _344  and  _346
REMARK  143  A    between atoms: _346  and  _347
REMARK  144  A    between atoms: _346  and  _349
REMARK  145  A    between atoms: _349  and  _350
REMARK  146  A    between atoms: _350  and  _351
REMARK  147  A    between atoms: _351  and  _352
REMARK  148  A    between atoms: _361  and  _363
REMARK  149  A    between atoms: _363  and  _364
REMARK  150  A    between atoms: _363  and  _366
REMARK  151  A    between atoms: _366  and  _367
REMARK  152  A    between atoms: _367  and  _368
REMARK  153  A    between atoms: _368  and  _369
REMARK  154  A    between atoms: _378  and  _380
REMARK  155  A    between atoms: _380  and  _381
REMARK  156  A    between atoms: _380  and  _383
REMARK  157  A    between atoms: _383  and  _384
REMARK  158  A    between atoms: _389  and  _390
REMARK  159  A    between atoms: _392  and  _394
REMARK  160  A    between atoms: _394  and  _395
REMARK  161  A    between atoms: _394  and  _397
REMARK  162  A    between atoms: _397  and  _398
REMARK  163  A    between atoms: _398  and  _399
REMARK  164  A    between atoms: _404  and  _406
REMARK  165  A    between atoms: _406  and  _407
REMARK  166  A    between atoms: _406  and  _409
REMARK  167  A    between atoms: _409  and  _410
REMARK  168  A    between atoms: _413  and  _415
REMARK  169  A    between atoms: _415  and  _416
REMARK  170  A    between atoms: _415  and  _418
REMARK  171  A    between atoms: _421  and  _423
REMARK  172  A    between atoms: _423  and  _424
REMARK  173  A    between atoms: _423  and  _426
REMARK  174  A    between atoms: _426  and  _427
REMARK  175  A    between atoms: _430  and  _432
REMARK  176  A    between atoms: _432  and  _433
REMARK  177  A    between atoms: _432  and  _435
REMARK  178  A    between atoms: _435  and  _436
REMARK  179  A    between atoms: _439  and  _441
REMARK  180  A    between atoms: _441  and  _442
REMARK  181  A    between atoms: _444  and  _446
REMARK  182  A    between atoms: _446  and  _447
REMARK  183  A    between atoms: _446  and  _449
REMARK  184  A    between atoms: _449  and  _450
REMARK  185  A    between atoms: _453  and  _455
REMARK  186  A    between atoms: _455  and  _456
REMARK  187  A    between atoms: _455  and  _458
REMARK  188  A    between atoms: _458  and  _459
REMARK  189  A    between atoms: _461  and  _463
REMARK  190  A    between atoms: _463  and  _464
REMARK  191  A    between atoms: _463  and  _466
REMARK  192  A    between atoms: _466  and  _467
REMARK  193  A    between atoms: _470  and  _472
REMARK  194  A    between atoms: _472  and  _473
REMARK  195  A    between atoms: _472  and  _475
REMARK  196  A    between atoms: _475  and  _476
REMARK  197  A    between atoms: _476  and  _477
REMARK  198  A    between atoms: _479  and  _481
REMARK  199  A    between atoms: _481  and  _482
REMARK  200  A    between atoms: _481  and  _484
REMARK  201  A    between atoms: _487  and  _489
REMARK  202  A    between atoms: _489  and  _490
REMARK  203  A    between atoms: _489  and  _492
REMARK  204  A    between atoms: _492  and  _493
REMARK  205  A    between atoms: _496  and  _498
REMARK  206  A    between atoms: _498  and  _499
REMARK  207  A    between atoms: _498  and  _501
REMARK  208  A    between atoms: _501  and  _502
REMARK  209  A    between atoms: _502  and  _503
REMARK  210  A    between atoms: _508  and  _510
REMARK  211  A    between atoms: _510  and  _511
REMARK  212  A    between atoms: _510  and  _513
REMARK  213  A    between atoms: _513  and  _514
REMARK  214  A    between atoms: _514  and  _515
REMARK  215  A    between atoms: _518  and  _520
REMARK  216  A    between atoms: _520  and  _521
REMARK  217  A    between atoms: _520  and  _523
REMARK  218  A    between atoms: _523  and  _524
REMARK  219  A    between atoms: _527  and  _529
REMARK  220  A    between atoms: _529  and  _530
REMARK  221  A    between atoms: _529  and  _532
REMARK  222  A    between atoms: _535  and  _537
REMARK  223  A    between atoms: _537  and  _538
REMARK  224  A    between atoms: _537  and  _540
REMARK  225  A    between atoms: _540  and  _541
REMARK  226  A    between atoms: _544  and  _546
REMARK  227  A    between atoms: _546  and  _547
REMARK  228  A    between atoms: _546  and  _549
REMARK  229  A    between atoms: _549  and  _550
REMARK  230  A    between atoms: _552  and  _554
REMARK  231  A    between atoms: _554  and  _555
REMARK  232  A    between atoms: _554  and  _557
REMARK  233  A    between atoms: _557  and  _558
REMARK  234  A    between atoms: _558  and  _559
REMARK  235  A    between atoms: _561  and  _563
REMARK  236  A    between atoms: _563  and  _564
REMARK  237  A    between atoms: _563  and  _566
REMARK  238  A    between atoms: _566  and  _567
REMARK  239  A    between atoms: _567  and  _568
REMARK  240  A    between atoms: _570  and  _572
REMARK  241  A    between atoms: _572  and  _573
REMARK  242  A    between atoms: _572  and  _575
REMARK  243  A    between atoms: _575  and  _576
REMARK  244  A    between atoms: _579  and  _581
REMARK  245  A    between atoms: _581  and  _582
REMARK  246  A    between atoms: _581  and  _584
REMARK  247  A    between atoms: _584  and  _585
REMARK  248  A    between atoms: _589  and  _590
REMARK  249  A    between atoms: _595  and  _597
REMARK  250  A    between atoms: _597  and  _598
REMARK  251  A    between atoms: _597  and  _600
REMARK  252  A    between atoms: _600  and  _601
REMARK  253  A    between atoms: _603  and  _605
REMARK  254  A    between atoms: _605  and  _606
REMARK  255  A    between atoms: _608  and  _610
REMARK  256  A    between atoms: _610  and  _611
REMARK  257  A    between atoms: _610  and  _613
REMARK  258  A    between atoms: _613  and  _614
REMARK  259  A    between atoms: _617  and  _619
REMARK  260  A    between atoms: _619  and  _620
REMARK  261  A    between atoms: _619  and  _622
REMARK  262  A    between atoms: _622  and  _623
REMARK  263  A    between atoms: _626  and  _628
REMARK  264  A    between atoms: _628  and  _629
REMARK  265  A    between atoms: _631  and  _633
REMARK  266  A    between atoms: _633  and  _634
REMARK  267  A    between atoms: _633  and  _636
REMARK  268  A    between atoms: _636  and  _637
REMARK                            x       y       z     vdW  Elec       q    Type
REMARK                         _______ _______ _______ _____ _____    ______ ____
ROOT
ATOM      1  CA  LEU A   1      33.107  90.030  -4.118  0.00  0.00    +0.133 C 
ENDROOT
BRANCH   1   2
ATOM      2  N   LEU A   1      34.216  90.725  -3.478  0.00  0.00    -0.239 NA
ATOM      3  H   LEU A   1      34.034  91.239  -2.593  0.00  0.00    +0.142 HD
ENDBRANCH   1   2
BRANCH   1   4
ATOM      4  C   LEU A   1      32.247  91.139  -4.728  0.00  0.00    +0.224 C 
ATOM      5  O   LEU A   1      32.471  91.586  -5.861  0.00  0.00    -0.287 OA
ENDBRANCH   1   4
BRANCH   1   6
ATOM      6  CB  LEU A   1      32.350  89.231  -3.050  0.00  0.00    +0.025 C 
BRANCH   6   7
ATOM      7  CG  LEU A   1      31.092  88.522  -3.429  0.00  0.00    +0.002 C 
ATOM      8  CD2 LEU A   1      30.438  88.060  -2.149  0.00  0.00    +0.000 C 
ATOM      9  CD1 LEU A   1      31.379  87.364  -4.358  0.00  0.00    +0.000 C 
ENDBRANCH   6   7
ENDBRANCH   1   6
TORSDOF 4
REMARK  Name = ../refined-set-2016/1lyb/1lyb_pocket.pdb
REMARK  268 active torsions:
REMARK  status: ('A' for Active; 'I' for Inactive)
REMARK    1  A    between atoms: _1  and  _3
REMARK    2  A    between atoms: _3  and  _4
REMARK    3  A    between atoms: _3  and  _6
REMARK    4  A    between atoms: _6  and  _7
REMARK    5  A    between atoms: _7  and  _8
REMARK    6  A    between atoms: _10  and  _12
REMARK    7  A    between atoms: _12  and  _13
REMARK    8  A    between atoms: _12  and  _15
REMARK    9  A    between atoms: _15  and  _16
REMARK   10  A    between atoms: _19  and  _21
REMARK   11  A    between atoms: _21  and  _22
REMARK   12  A    between atoms: _25  and  _27
REMARK   13  A    between atoms: _27  and  _28
REMARK   14  A    between atoms: _27  and  _30
REMARK   15  A    between atoms: _30  and  _31
REMARK   16  A    between atoms: _31  and  _32
REMARK   17  A    between atoms: _37  and  _39
REMARK   18  A    between atoms: _39  and  _40
REMARK   19  A    between atoms: _39  and  _42
REMARK   20  A    between atoms: _42  and  _43
REMARK   21  A    between atoms: _48  and  _49
REMARK   22  A    between atoms: _51  and  _53
REMARK   23  A    between atoms: _53  and  _54
REMARK   24  A    between atoms: _53  and  _56
REMARK   25  A    between atoms: _59  and  _61
REMARK   26  A    between atoms: _61  and  _62
REMARK   27  A    between atoms: _61  and  _64
REMARK   28  A    between atoms: _67  and  _69
REMARK   29  A    between atoms: _69  and  _70
REMARK   30  A    between atoms: _69  and  _72
REMARK   31  A    between atoms: _72  and  _73
REMARK   32  A    between atoms: _79  and  _81
REMARK   33  A    between atoms: _81  and  _82
REMARK   34  A    between atoms: _81  and  _84
REMARK   35  A    between atoms: _84  and  _85
REMARK   36  A    between atoms: _88  and  _90
REMARK   37  A    between atoms: _90  and  _91
REMARK   38  A    between atoms: _90  and  _93
REMARK   39  A    between atoms: _93  and  _94
REMARK   40  A    between atoms: _97  and  _99
REMARK   41  A    between atoms: _99  and  _100
REMARK   42  A    between atoms: _102  and  _104
REMARK   43  A    between atoms: _104  and  _105
REMARK   44  A    between atoms: _104  and  _107
REMARK   45  A    between atoms: _107  and  _108
REMARK   46  A    between atoms: _110  and  _112
REMARK   47  A    between atoms: _112  and  _113
REMARK   48  A    between atoms: _112  and  _115
REMARK   49  A    between atoms: _115  and  _116
REMARK   50  A    between atoms: _118  and  _120
REMARK   51  A    between atoms: _120  and  _121
REMARK   52  A    between atoms: _120  and  _123
REMARK   53  A    between atoms: _123  and  _124
REMARK   54  A    between atoms: _129  and  _131
REMARK   55  A    between atoms: _131  and  _132
REMARK   56  A    between atoms: _131  and  _134
REMARK   57  A    between atoms: _134  and  _135
REMARK   58  A    between atoms: _145  and  _147
REMARK   59  A    between atoms: _147  and  _148
REMARK   60  A    between atoms: _147  and  _150
REMARK   61  A    between atoms: _150  and  _151
REMARK   62  A    between atoms: _154  and  _156
REMARK   63  A    between atoms: _156  and  _157
REMARK   64  A    between atoms: _156  and  _159
REMARK   65  A    between atoms: _159  and  _160
REMARK   66  A    between atoms: _163  and  _165
REMARK   67  A    between atoms: _165  and  _166
REMARK   68  A    between atoms: _165  and  _168
REMARK   69  A    between atoms: _168  and  _169
REMARK   70  A    between atoms: _174  and  _176
REMARK   71  A    between atoms: _176  and  _177
REMARK   72  A    between atoms: _176  and  _179
REMARK   73  A    between atoms: _179  and  _180
REMARK   74  A    between atoms: _185  and  _186
REMARK   75  A    between atoms: _188  and  _190
REMARK   76  A    between atoms: _190  and  _191
REMARK   77  A    between atoms: _193  and  _195
REMARK   78  A    between atoms: _195  and  _196
REMARK   79  A    between atoms: _195  and  _198
REMARK   80  A    between atoms: _198  and  _199
REMARK   81  A    between atoms: _201  and  _203
REMARK   82  A    between atoms: _203  and  _204
REMARK   83  A    between atoms: _206  and  _208
REMARK   84  A    between atoms: _208  and  _209
REMARK   85  A    between atoms: _208  and  _211
REMARK   86  A    between atoms: _211  and  _212
REMARK   87  A    between atoms: _214  and  _216
REMARK   88  A    between atoms: _216  and  _217
REMARK   89  A    between atoms: _216  and  _219
REMARK   90  A    between atoms: _219  and  _220
REMARK   91  A    between atoms: _223  and  _225
REMARK   92  A    between atoms: _225  and  _226
REMARK   93  A    between atoms: _225  and  _228
REMARK   94  A    between atoms: _228  and  _229
REMARK   95  A    between atoms: _232  and  _234
REMARK   96  A    between atoms: _234  and  _235
REMARK   97  A    between atoms: _234  and  _237
REMARK   98  A    between atoms: _237  and  _238
REMARK   99  A    between atoms: _244  and  _246
REMARK  100  A    between atoms: _246  and  _247
REMARK  101  A    between atoms: _250  and  _252
REMARK  102  A    between atoms: _252  and  _253
REMARK  103  A    between atoms: _256  and  _258
REMARK  104  A    between atoms: _258  and  _259
REMARK  105  A    between atoms: _258  and  _261
REMARK  106  A    between atoms: _261  and  _262
REMARK  107  A    between atoms: _262  and  _263
REMARK  108  A    between atoms: _263  and  _264
REMARK  109  A    between atoms: _264  and  _265
REMARK  110  A    between atoms: _269  and  _271
REMARK  111  A    between atoms: _271  and  _272
REMARK  112  A    between atoms: _271  and  _274
REMARK  113  A    between atoms: _274  and  _275
REMARK  114  A    between atoms: _281  and  _283
REMARK  115  A    between atoms: _283  and  _284
REMARK  116  A    between atoms: _286  and  _288
REMARK  117  A    between atoms: _288  and  _289
REMARK  118  A    between atoms: _288  and  _291
REMARK  119  A    between atoms: _291  and  _292
REMARK  120  A    between atoms: _295  and  _297
REMARK  121  A    between atoms: _297  and  _298
REMARK  122  A    between atoms: _297  and  _300
REMARK  123  A    between atoms: _300  and  _301
REMARK  124  A    between atoms: _304  and  _306
REMARK  125  A    between atoms: _306  and  _307
REMARK  126  A    between atoms: _306  and  _309
REMARK  127  A    between atoms: _309  and  _310
REMARK  128  A    between atoms: _310  and  _311
REMARK  129  A    between atoms: _313  and  _315
REMARK  130  A    between atoms: _315  and  _316
REMARK  131  A    between atoms: _319  and  _321
REMARK  132  A    between atoms: _321  and  _322
REMARK  133  A    between atoms: _321  and  _324
REMARK  134  A    between atoms: _324  and  _325
REMARK  135  A    between atoms: _328  and  _330
REMARK  136  A    between atoms: _330  and  _331
REMARK  137  A    between atoms: _330  and  _333
REMARK  138  A    between atoms: _333  and  _334
REMARK  139  A    between atoms: _336  and  _338
REMARK  140  A    between atoms: _338  and  _339
REMARK  141  A    between atoms: _338  and  _341
REMARK  142  A    between atoms: _344  and  _346
REMARK  143  A    between atoms: _346  and  _347
REMARK  144  A    between atoms: _346  and  _349
REMARK  145  A    between atoms: _349  and  _350
REMARK  146  A    between atoms: _350  and  _351
REMARK  147  A    between atoms: _351  and  _352
REMARK  148  A    between atoms: _361  and  _363
REMARK  149  A    between atoms: _363  and  _364
REMARK  150  A    between atoms: _363  and  _366
REMARK  151  A    between atoms: _366  and  _367
REMARK  152  A    between atoms: _367  and  _368
REMARK  153  A    between atoms: _368  and  _369
REMARK  154  A    between atoms: _378  and  _380
REMARK  155  A    between atoms: _380  and  _381
REMARK  156  A    between atoms: _380  and  _383
REMARK  157  A    between atoms: _383  and  _384
REMARK  158  A    between atoms: _389  and  _390
REMARK  159  A    between atoms: _392  and  _394
REMARK  160  A    between atoms: _394  and  _395
REMARK  161  A    between atoms: _394  and  _397
REMARK  162  A    between atoms: _397  and  _398
REMARK  163  A    between atoms: _398  and  _399
REMARK  164  A    between atoms: _404  and  _406
REMARK  165  A    between atoms: _406  and  _407
REMARK  166  A    between atoms: _406  and  _409
REMARK  167  A    between atoms: _409  and  _410
REMARK  168  A    between atoms: _413  and  _415
REMARK  169  A    between atoms: _415  and  _416
REMARK  170  A    between atoms: _415  and  _418
REMARK  171  A    between atoms: _421  and  _423
REMARK  172  A    between atoms: _423  and  _424
REMARK  173  A    between atoms: _423  and  _426
REMARK  174  A    between atoms: _426  and  _427
REMARK  175  A    between atoms: _430  and  _432
REMARK  176  A    between atoms: _432  and  _433
REMARK  177  A    between atoms: _432  and  _435
REMARK  178  A    between atoms: _435  and  _436
REMARK  179  A    between atoms: _439  and  _441
REMARK  180  A    between atoms: _441  and  _442
REMARK  181  A    between atoms: _444  and  _446
REMARK  182  A    between atoms: _446  and  _447
REMARK  183  A    between atoms: _446  and  _449
REMARK  184  A    between atoms: _449  and  _450
REMARK  185  A    between atoms: _453  and  _455
REMARK  186  A    between atoms: _455  and  _456
REMARK  187  A    between atoms: _455  and  _458
REMARK  188  A    between atoms: _458  and  _459
REMARK  189  A    between atoms: _461  and  _463
REMARK  190  A    between atoms: _463  and  _464
REMARK  191  A    between atoms: _463  and  _466
REMARK  192  A    between atoms: _466  and  _467
REMARK  193  A    between atoms: _470  and  _472
REMARK  194  A    between atoms: _472  and  _473
REMARK  195  A    between atoms: _472  and  _475
REMARK  196  A    between atoms: _475  and  _476
REMARK  197  A    between atoms: _476  and  _477
REMARK  198  A    between atoms: _479  and  _481
REMARK  199  A    between atoms: _481  and  _482
REMARK  200  A    between atoms: _481  and  _484
REMARK  201  A    between atoms: _487  and  _489
REMARK  202  A    between atoms: _489  and  _490
REMARK  203  A    between atoms: _489  and  _492
REMARK  204  A    between atoms: _492  and  _493
REMARK  205  A    between atoms: _496  and  _498
REMARK  206  A    between atoms: _498  and  _499
REMARK  207  A    between atoms: _498  and  _501
REMARK  208  A    between atoms: _501  and  _502
REMARK  209  A    between atoms: _502  and  _503
REMARK  210  A    between atoms: _508  and  _510
REMARK  211  A    between atoms: _510  and  _511
REMARK  212  A    between atoms: _510  and  _513
REMARK  213  A    between atoms: _513  and  _514
REMARK  214  A    between atoms: _514  and  _515
REMARK  215  A    between atoms: _518  and  _520
REMARK  216  A    between atoms: _520  and  _521
REMARK  217  A    between atoms: _520  and  _523
REMARK  218  A    between atoms: _523  and  _524
REMARK  219  A    between atoms: _527  and  _529
REMARK  220  A    between atoms: _529  and  _530
REMARK  221  A    between atoms: _529  and  _532
REMARK  222  A    between atoms: _535  and  _537
REMARK  223  A    between atoms: _537  and  _538
REMARK  224  A    between atoms: _537  and  _540
REMARK  225  A    between atoms: _540  and  _541
REMARK  226  A    between atoms: _544  and  _546
REMARK  227  A    between atoms: _546  and  _547
REMARK  228  A    between atoms: _546  and  _549
REMARK  229  A    between atoms: _549  and  _550
REMARK  230  A    between atoms: _552  and  _554
REMARK  231  A    between atoms: _554  and  _555
REMARK  232  A    between atoms: _554  and  _557
REMARK  233  A    between atoms: _557  and  _558
REMARK  234  A    between atoms: _558  and  _559
REMARK  235  A    between atoms: _561  and  _563
REMARK  236  A    between atoms: _563  and  _564
REMARK  237  A    between atoms: _563  and  _566
REMARK  238  A    between atoms: _566  and  _567
REMARK  239  A    between atoms: _567  and  _568
REMARK  240  A    between atoms: _570  and  _572
REMARK  241  A    between atoms: _572  and  _573
REMARK  242  A    between atoms: _572  and  _575
REMARK  243  A    between atoms: _575  and  _576
REMARK  244  A    between atoms: _579  and  _581
REMARK  245  A    between atoms: _581  and  _582
REMARK  246  A    between atoms: _581  and  _584
REMARK  247  A    between atoms: _584  and  _585
REMARK  248  A    between atoms: _589  and  _590
REMARK  249  A    between atoms: _595  and  _597
REMARK  250  A    between atoms: _597  and  _598
REMARK  251  A    between atoms: _597  and  _600
REMARK  252  A    between atoms: _600  and  _601
REMARK  253  A    between atoms: _603  and  _605
REMARK  254  A    between atoms: _605  and  _606
REMARK  255  A    between atoms: _608  and  _610
REMARK  256  A    between atoms: _610  and  _611
REMARK  257  A    between atoms: _610  and  _613
REMARK  258  A    between atoms: _613  and  _614
REMARK  259  A    between atoms: _617  and  _619
REMARK  260  A    between atoms: _619  and  _620
REMARK  261  A    between atoms: _619  and  _622
REMARK  262  A    between atoms: _622  and  _623
REMARK  263  A    between atoms: _626  and  _628
REMARK  264  A    between atoms: _628  and  _629
REMARK  265  A    between atoms: _631  and  _633
REMARK  266  A    between atoms: _633  and  _634
REMARK  267  A    between atoms: _633  and  _636
REMARK  268  A    between atoms: _636  and  _637
REMARK                            x       y       z     vdW  Elec       q    Type
REMARK                         _______ _______ _______ _____ _____    ______ ____
ROOT
ATOM      1  CB  GLN A   1      28.164  96.133  -2.357  0.00  0.00    +0.035 C 
ENDROOT
BRANCH   1   2
ATOM      2  CA  GLN A   1      29.677  95.795  -2.301  0.00  0.00    +0.134 C 
BRANCH   2   3
ATOM      3  N   GLN A   1      29.984  94.836  -3.360  0.00  0.00    -0.239 NA
ATOM      4  H   GLN A   1      30.149  95.218  -4.313  0.00  0.00    +0.142 HD
ENDBRANCH   2   3
BRANCH   2   5
ATOM      5  C   GLN A   1      30.078  95.451  -0.862  0.00  0.00    +0.224 C 
ATOM      6  O   GLN A   1      29.280  94.994  -0.044  0.00  0.00    -0.287 OA
ENDBRANCH   2   5
ENDBRANCH   1   2
BRANCH   1   7
ATOM      7  CG  GLN A   1      27.109  95.056  -2.139  0.00  0.00    +0.087 C 
BRANCH   7   8
ATOM      8  CD  GLN A   1      25.745  95.533  -2.620  0.00  0.00    +0.219 C 
ATOM      9  NE2 GLN A   1      24.628  95.238  -1.957  0.00  0.00    -0.329 N 
ATOM     10 HE21 GLN A   1      24.675  94.681  -1.080  0.00  0.00    +0.145 HD
ATOM     11 HE22 GLN A   1      23.708  95.565  -2.316  0.00  0.00    +0.145 HD
ATOM     12  OE1 GLN A   1      25.634  96.195  -3.652  0.00  0.00    -0.275 OA
ENDBRANCH   7   8
ENDBRANCH   1   7
TORSDOF 5
REMARK  Name = ../refined-set-2016/1lyb/1lyb_pocket.pdb
REMARK  268 active torsions:
REMARK  status: ('A' for Active; 'I' for Inactive)
REMARK    1  A    between atoms: _1  and  _3
REMARK    2  A    between atoms: _3  and  _4
REMARK    3  A    between atoms: _3  and  _6
REMARK    4  A    between atoms: _6  and  _7
REMARK    5  A    between atoms: _7  and  _8
REMARK    6  A    between atoms: _10  and  _12
REMARK    7  A    between atoms: _12  and  _13
REMARK    8  A    between atoms: _12  and  _15
REMARK    9  A    between atoms: _15  and  _16
REMARK   10  A    between atoms: _19  and  _21
REMARK   11  A    between atoms: _21  and  _22
REMARK   12  A    between atoms: _25  and  _27
REMARK   13  A    between atoms: _27  and  _28
REMARK   14  A    between atoms: _27  and  _30
REMARK   15  A    between atoms: _30  and  _31
REMARK   16  A    between atoms: _31  and  _32
REMARK   17  A    between atoms: _37  and  _39
REMARK   18  A    between atoms: _39  and  _40
REMARK   19  A    between atoms: _39  and  _42
REMARK   20  A    between atoms: _42  and  _43
REMARK   21  A    between atoms: _48  and  _49
REMARK   22  A    between atoms: _51  and  _53
REMARK   23  A    between atoms: _53  and  _54
REMARK   24  A    between atoms: _53  and  _56
REMARK   25  A    between atoms: _59  and  _61
REMARK   26  A    between atoms: _61  and  _62
REMARK   27  A    between atoms: _61  and  _64
REMARK   28  A    between atoms: _67  and  _69
REMARK   29  A    between atoms: _69  and  _70
REMARK   30  A    between atoms: _69  and  _72
REMARK   31  A    between atoms: _72  and  _73
REMARK   32  A    between atoms: _79  and  _81
REMARK   33  A    between atoms: _81  and  _82
REMARK   34  A    between atoms: _81  and  _84
REMARK   35  A    between atoms: _84  and  _85
REMARK   36  A    between atoms: _88  and  _90
REMARK   37  A    between atoms: _90  and  _91
REMARK   38  A    between atoms: _90  and  _93
REMARK   39  A    between atoms: _93  and  _94
REMARK   40  A    between atoms: _97  and  _99
REMARK   41  A    between atoms: _99  and  _100
REMARK   42  A    between atoms: _102  and  _104
REMARK   43  A    between atoms: _104  and  _105
REMARK   44  A    between atoms: _104  and  _107
REMARK   45  A    between atoms: _107  and  _108
REMARK   46  A    between atoms: _110  and  _112
REMARK   47  A    between atoms: _112  and  _113
REMARK   48  A    between atoms: _112  and  _115
REMARK   49  A    between atoms: _115  and  _116
REMARK   50  A    between atoms: _118  and  _120
REMARK   51  A    between atoms: _120  and  _121
REMARK   52  A    between atoms: _120  and  _123
REMARK   53  A    between atoms: _123  and  _124
REMARK   54  A    between atoms: _129  and  _131
REMARK   55  A    between atoms: _131  and  _132
REMARK   56  A    between atoms: _131  and  _134
REMARK   57  A    between atoms: _134  and  _135
REMARK   58  A    between atoms: _145  and  _147
REMARK   59  A    between atoms: _147  and  _148
REMARK   60  A    between atoms: _147  and  _150
REMARK   61  A    between atoms: _150  and  _151
REMARK   62  A    between atoms: _154  and  _156
REMARK   63  A    between atoms: _156  and  _157
REMARK   64  A    between atoms: _156  and  _159
REMARK   65  A    between atoms: _159  and  _160
REMARK   66  A    between atoms: _163  and  _165
REMARK   67  A    between atoms: _165  and  _166
REMARK   68  A    between atoms: _165  and  _168
REMARK   69  A    between atoms: _168  and  _169
REMARK   70  A    between atoms: _174  and  _176
REMARK   71  A    between atoms: _176  and  _177
REMARK   72  A    between atoms: _176  and  _179
REMARK   73  A    between atoms: _179  and  _180
REMARK   74  A    between atoms: _185  and  _186
REMARK   75  A    between atoms: _188  and  _190
REMARK   76  A    between atoms: _190  and  _191
REMARK   77  A    between atoms: _193  and  _195
REMARK   78  A    between atoms: _195  and  _196
REMARK   79  A    between atoms: _195  and  _198
REMARK   80  A    between atoms: _198  and  _199
REMARK   81  A    between atoms: _201  and  _203
REMARK   82  A    between atoms: _203  and  _204
REMARK   83  A    between atoms: _206  and  _208
REMARK   84  A    between atoms: _208  and  _209
REMARK   85  A    between atoms: _208  and  _211
REMARK   86  A    between atoms: _211  and  _212
REMARK   87  A    between atoms: _214  and  _216
REMARK   88  A    between atoms: _216  and  _217
REMARK   89  A    between atoms: _216  and  _219
REMARK   90  A    between atoms: _219  and  _220
REMARK   91  A    between atoms: _223  and  _225
REMARK   92  A    between atoms: _225  and  _226
REMARK   93  A    between atoms: _225  and  _228
REMARK   94  A    between atoms: _228  and  _229
REMARK   95  A    between atoms: _232  and  _234
REMARK   96  A    between atoms: _234  and  _235
REMARK   97  A    between atoms: _234  and  _237
REMARK   98  A    between atoms: _237  and  _238
REMARK   99  A    between atoms: _244  and  _246
REMARK  100  A    between atoms: _246  and  _247
REMARK  101  A    between atoms: _250  and  _252
REMARK  102  A    between atoms: _252  and  _253
REMARK  103  A    between atoms: _256  and  _258
REMARK  104  A    between atoms: _258  and  _259
REMARK  105  A    between atoms: _258  and  _261
REMARK  106  A    between atoms: _261  and  _262
REMARK  107  A    between atoms: _262  and  _263
REMARK  108  A    between atoms: _263  and  _264
REMARK  109  A    between atoms: _264  and  _265
REMARK  110  A    between atoms: _269  and  _271
REMARK  111  A    between atoms: _271  and  _272
REMARK  112  A    between atoms: _271  and  _274
REMARK  113  A    between atoms: _274  and  _275
REMARK  114  A    between atoms: _281  and  _283
REMARK  115  A    between atoms: _283  and  _284
REMARK  116  A    between atoms: _286  and  _288
REMARK  117  A    between atoms: _288  and  _289
REMARK  118  A    between atoms: _288  and  _291
REMARK  119  A    between atoms: _291  and  _292
REMARK  120  A    between atoms: _295  and  _297
REMARK  121  A    between atoms: _297  and  _298
REMARK  122  A    between atoms: _297  and  _300
REMARK  123  A    between atoms: _300  and  _301
REMARK  124  A    between atoms: _304  and  _306
REMARK  125  A    between atoms: _306  and  _307
REMARK  126  A    between atoms: _306  and  _309
REMARK  127  A    between atoms: _309  and  _310
REMARK  128  A    between atoms: _310  and  _311
REMARK  129  A    between atoms: _313  and  _315
REMARK  130  A    between atoms: _315  and  _316
REMARK  131  A    between atoms: _319  and  _321
REMARK  132  A    between atoms: _321  and  _322
REMARK  133  A    between atoms: _321  and  _324
REMARK  134  A    between atoms: _324  and  _325
REMARK  135  A    between atoms: _328  and  _330
REMARK  136  A    between atoms: _330  and  _331
REMARK  137  A    between atoms: _330  and  _333
REMARK  138  A    between atoms: _333  and  _334
REMARK  139  A    between atoms: _336  and  _338
REMARK  140  A    between atoms: _338  and  _339
REMARK  141  A    between atoms: _338  and  _341
REMARK  142  A    between atoms: _344  and  _346
REMARK  143  A    between atoms: _346  and  _347
REMARK  144  A    between atoms: _346  and  _349
REMARK  145  A    between atoms: _349  and  _350
REMARK  146  A    between atoms: _350  and  _351
REMARK  147  A    between atoms: _351  and  _352
REMARK  148  A    between atoms: _361  and  _363
REMARK  149  A    between atoms: _363  and  _364
REMARK  150  A    between atoms: _363  and  _366
REMARK  151  A    between atoms: _366  and  _367
REMARK  152  A    between atoms: _367  and  _368
REMARK  153  A    between atoms: _368  and  _369
REMARK  154  A    between atoms: _378  and  _380
REMARK  155  A    between atoms: _380  and  _381
REMARK  156  A    between atoms: _380  and  _383
REMARK  157  A    between atoms: _383  and  _384
REMARK  158  A    between atoms: _389  and  _390
REMARK  159  A    between atoms: _392  and  _394
REMARK  160  A    between atoms: _394  and  _395
REMARK  161  A    between atoms: _394  and  _397
REMARK  162  A    between atoms: _397  and  _398
REMARK  163  A    between atoms: _398  and  _399
REMARK  164  A    between atoms: _404  and  _406
REMARK  165  A    between atoms: _406  and  _407
REMARK  166  A    between atoms: _406  and  _409
REMARK  167  A    between atoms: _409  and  _410
REMARK  168  A    between atoms: _413  and  _415
REMARK  169  A    between atoms: _415  and  _416
REMARK  170  A    between atoms: _415  and  _418
REMARK  171  A    between atoms: _421  and  _423
REMARK  172  A    between atoms: _423  and  _424
REMARK  173  A    between atoms: _423  and  _426
REMARK  174  A    between atoms: _426  and  _427
REMARK  175  A    between atoms: _430  and  _432
REMARK  176  A    between atoms: _432  and  _433
REMARK  177  A    between atoms: _432  and  _435
REMARK  178  A    between atoms: _435  and  _436
REMARK  179  A    between atoms: _439  and  _441
REMARK  180  A    between atoms: _441  and  _442
REMARK  181  A    between atoms: _444  and  _446
REMARK  182  A    between atoms: _446  and  _447
REMARK  183  A    between atoms: _446  and  _449
REMARK  184  A    between atoms: _449  and  _450
REMARK  185  A    between atoms: _453  and  _455
REMARK  186  A    between atoms: _455  and  _456
REMARK  187  A    between atoms: _455  and  _458
REMARK  188  A    between atoms: _458  and  _459
REMARK  189  A    between atoms: _461  and  _463
REMARK  190  A    between atoms: _463  and  _464
REMARK  191  A    between atoms: _463  and  _466
REMARK  192  A    between atoms: _466  and  _467
REMARK  193  A    between atoms: _470  and  _472
REMARK  194  A    between atoms: _472  and  _473
REMARK  195  A    between atoms: _472  and  _475
REMARK  196  A    between atoms: _475  and  _476
REMARK  197  A    between atoms: _476  and  _477
REMARK  198  A    between atoms: _479  and  _481
REMARK  199  A    between atoms: _481  and  _482
REMARK  200  A    between atoms: _481  and  _484
REMARK  201  A    between atoms: _487  and  _489
REMARK  202  A    between atoms: _489  and  _490
REMARK  203  A    between atoms: _489  and  _492
REMARK  204  A    between atoms: _492  and  _493
REMARK  205  A    between atoms: _496  and  _498
REMARK  206  A    between atoms: _498  and  _499
REMARK  207  A    between atoms: _498  and  _501
REMARK  208  A    between atoms: _501  and  _502
REMARK  209  A    between atoms: _502  and  _503
REMARK  210  A    between atoms: _508  and  _510
REMARK  211  A    between atoms: _510  and  _511
REMARK  212  A    between atoms: _510  and  _513
REMARK  213  A    between atoms: _513  and  _514
REMARK  214  A    between atoms: _514  and  _515
REMARK  215  A    between atoms: _518  and  _520
REMARK  216  A    between atoms: _520  and  _521
REMARK  217  A    between atoms: _520  and  _523
REMARK  218  A    between atoms: _523  and  _524
REMARK  219  A    between atoms: _527  and  _529
REMARK  220  A    between atoms: _529  and  _530
REMARK  221  A    between atoms: _529  and  _532
REMARK  222  A    between atoms: _535  and  _537
REMARK  223  A    between atoms: _537  and  _538
REMARK  224  A    between atoms: _537  and  _540
REMARK  225  A    between atoms: _540  and  _541
REMARK  226  A    between atoms: _544  and  _546
REMARK  227  A    between atoms: _546  and  _547
REMARK  228  A    between atoms: _546  and  _549
REMARK  229  A    between atoms: _549  and  _550
REMARK  230  A    between atoms: _552  and  _554
REMARK  231  A    between atoms: _554  and  _555
REMARK  232  A    between atoms: _554  and  _557
REMARK  233  A    between atoms: _557  and  _558
REMARK  234  A    between atoms: _558  and  _559
REMARK  235  A    between atoms: _561  and  _563
REMARK  236  A    between atoms: _563  and  _564
REMARK  237  A    between atoms: _563  and  _566
REMARK  238  A    between atoms: _566  and  _567
REMARK  239  A    between atoms: _567  and  _568
REMARK  240  A    between atoms: _570  and  _572
REMARK  241  A    between atoms: _572  and  _573
REMARK  242  A    between atoms: _572  and  _575
REMARK  243  A    between atoms: _575  and  _576
REMARK  244  A    between atoms: _579  and  _581
REMARK  245  A    between atoms: _581  and  _582
REMARK  246  A    between atoms: _581  and  _584
REMARK  247  A    between atoms: _584  and  _585
REMARK  248  A    between atoms: _589  and  _590
REMARK  249  A    between atoms: _595  and  _597
REMARK  250  A    between atoms: _597  and  _598
REMARK  251  A    between atoms: _597  and  _600
REMARK  252  A    between atoms: _600  and  _601
REMARK  253  A    between atoms: _603  and  _605
REMARK  254  A    between atoms: _605  and  _606
REMARK  255  A    between atoms: _608  and  _610
REMARK  256  A    between atoms: _610  and  _611
REMARK  257  A    between atoms: _610  and  _613
REMARK  258  A    between atoms: _613  and  _614
REMARK  259  A    between atoms: _617  and  _619
REMARK  260  A    between atoms: _619  and  _620
REMARK  261  A    between atoms: _619  and  _622
REMARK  262  A    between atoms: _622  and  _623
REMARK  263  A    between atoms: _626  and  _628
REMARK  264  A    between atoms: _628  and  _629
REMARK  265  A    between atoms: _631  and  _633
REMARK  266  A    between atoms: _633  and  _634
REMARK  267  A    between atoms: _633  and  _636
REMARK  268  A    between atoms: _636  and  _637
REMARK                            x       y       z     vdW  Elec       q    Type
REMARK                         _______ _______ _______ _____ _____    ______ ____
ROOT
ATOM      1  CA  GLU A   1      31.862  91.685   0.975  0.00  0.00    +0.134 C 
ENDROOT
BRANCH   1   2
ATOM      2  N   GLU A   1      31.772  93.051   0.524  0.00  0.00    -0.239 NA
ATOM      3  H   GLU A   1      31.598  93.237  -0.484  0.00  0.00    +0.142 HD
ENDBRANCH   1   2
BRANCH   1   4
ATOM      4  C   GLU A   1      33.015  90.968   0.306  0.00  0.00    +0.224 C 
ATOM      5  O   GLU A   1      33.269  91.163  -0.883  0.00  0.00    -0.287 OA
ENDBRANCH   1   4
BRANCH   1   6
ATOM      6  CB  GLU A   1      30.584  91.002   0.663  0.00  0.00    +0.037 C 
BRANCH   6   7
ATOM      7  CG  GLU A   1      29.657  91.094   1.832  0.00  0.00    +0.116 C 
BRANCH   7   8
ATOM      8  CD  GLU A   1      28.234  90.769   1.425  0.00  0.00    +0.365 C 
ATOM      9  OE2 GLU A   1      27.358  91.599   1.675  0.00  0.00    -0.246 OA
ATOM     10  OE1 GLU A   1      27.988  89.699   0.862  0.00  0.00    -0.246 OA
ENDBRANCH   7   8
ENDBRANCH   6   7
ENDBRANCH   1   6
TORSDOF 5
REMARK  Name = ../refined-set-2016/1lyb/1lyb_pocket.pdb
REMARK  268 active torsions:
REMARK  status: ('A' for Active; 'I' for Inactive)
REMARK    1  A    between atoms: _1  and  _3
REMARK    2  A    between atoms: _3  and  _4
REMARK    3  A    between atoms: _3  and  _6
REMARK    4  A    between atoms: _6  and  _7
REMARK    5  A    between atoms: _7  and  _8
REMARK    6  A    between atoms: _10  and  _12
REMARK    7  A    between atoms: _12  and  _13
REMARK    8  A    between atoms: _12  and  _15
REMARK    9  A    between atoms: _15  and  _16
REMARK   10  A    between atoms: _19  and  _21
REMARK   11  A    between atoms: _21  and  _22
REMARK   12  A    between atoms: _25  and  _27
REMARK   13  A    between atoms: _27  and  _28
REMARK   14  A    between atoms: _27  and  _30
REMARK   15  A    between atoms: _30  and  _31
REMARK   16  A    between atoms: _31  and  _32
REMARK   17  A    between atoms: _37  and  _39
REMARK   18  A    between atoms: _39  and  _40
REMARK   19  A    between atoms: _39  and  _42
REMARK   20  A    between atoms: _42  and  _43
REMARK   21  A    between atoms: _48  and  _49
REMARK   22  A    between atoms: _51  and  _53
REMARK   23  A    between atoms: _53  and  _54
REMARK   24  A    between atoms: _53  and  _56
REMARK   25  A    between atoms: _59  and  _61
REMARK   26  A    between atoms: _61  and  _62
REMARK   27  A    between atoms: _61  and  _64
REMARK   28  A    between atoms: _67  and  _69
REMARK   29  A    between atoms: _69  and  _70
REMARK   30  A    between atoms: _69  and  _72
REMARK   31  A    between atoms: _72  and  _73
REMARK   32  A    between atoms: _79  and  _81
REMARK   33  A    between atoms: _81  and  _82
REMARK   34  A    between atoms: _81  and  _84
REMARK   35  A    between atoms: _84  and  _85
REMARK   36  A    between atoms: _88  and  _90
REMARK   37  A    between atoms: _90  and  _91
REMARK   38  A    between atoms: _90  and  _93
REMARK   39  A    between atoms: _93  and  _94
REMARK   40  A    between atoms: _97  and  _99
REMARK   41  A    between atoms: _99  and  _100
REMARK   42  A    between atoms: _102  and  _104
REMARK   43  A    between atoms: _104  and  _105
REMARK   44  A    between atoms: _104  and  _107
REMARK   45  A    between atoms: _107  and  _108
REMARK   46  A    between atoms: _110  and  _112
REMARK   47  A    between atoms: _112  and  _113
REMARK   48  A    between atoms: _112  and  _115
REMARK   49  A    between atoms: _115  and  _116
REMARK   50  A    between atoms: _118  and  _120
REMARK   51  A    between atoms: _120  and  _121
REMARK   52  A    between atoms: _120  and  _123
REMARK   53  A    between atoms: _123  and  _124
REMARK   54  A    between atoms: _129  and  _131
REMARK   55  A    between atoms: _131  and  _132
REMARK   56  A    between atoms: _131  and  _134
REMARK   57  A    between atoms: _134  and  _135
REMARK   58  A    between atoms: _145  and  _147
REMARK   59  A    between atoms: _147  and  _148
REMARK   60  A    between atoms: _147  and  _150
REMARK   61  A    between atoms: _150  and  _151
REMARK   62  A    between atoms: _154  and  _156
REMARK   63  A    between atoms: _156  and  _157
REMARK   64  A    between atoms: _156  and  _159
REMARK   65  A    between atoms: _159  and  _160
REMARK   66  A    between atoms: _163  and  _165
REMARK   67  A    between atoms: _165  and  _166
REMARK   68  A    between atoms: _165  and  _168
REMARK   69  A    between atoms: _168  and  _169
REMARK   70  A    between atoms: _174  and  _176
REMARK   71  A    between atoms: _176  and  _177
REMARK   72  A    between atoms: _176  and  _179
REMARK   73  A    between atoms: _179  and  _180
REMARK   74  A    between atoms: _185  and  _186
REMARK   75  A    between atoms: _188  and  _190
REMARK   76  A    between atoms: _190  and  _191
REMARK   77  A    between atoms: _193  and  _195
REMARK   78  A    between atoms: _195  and  _196
REMARK   79  A    between atoms: _195  and  _198
REMARK   80  A    between atoms: _198  and  _199
REMARK   81  A    between atoms: _201  and  _203
REMARK   82  A    between atoms: _203  and  _204
REMARK   83  A    between atoms: _206  and  _208
REMARK   84  A    between atoms: _208  and  _209
REMARK   85  A    between atoms: _208  and  _211
REMARK   86  A    between atoms: _211  and  _212
REMARK   87  A    between atoms: _214  and  _216
REMARK   88  A    between atoms: _216  and  _217
REMARK   89  A    between atoms: _216  and  _219
REMARK   90  A    between atoms: _219  and  _220
REMARK   91  A    between atoms: _223  and  _225
REMARK   92  A    between atoms: _225  and  _226
REMARK   93  A    between atoms: _225  and  _228
REMARK   94  A    between atoms: _228  and  _229
REMARK   95  A    between atoms: _232  and  _234
REMARK   96  A    between atoms: _234  and  _235
REMARK   97  A    between atoms: _234  and  _237
REMARK   98  A    between atoms: _237  and  _238
REMARK   99  A    between atoms: _244  and  _246
REMARK  100  A    between atoms: _246  and  _247
REMARK  101  A    between atoms: _250  and  _252
REMARK  102  A    between atoms: _252  and  _253
REMARK  103  A    between atoms: _256  and  _258
REMARK  104  A    between atoms: _258  and  _259
REMARK  105  A    between atoms: _258  and  _261
REMARK  106  A    between atoms: _261  and  _262
REMARK  107  A    between atoms: _262  and  _263
REMARK  108  A    between atoms: _263  and  _264
REMARK  109  A    between atoms: _264  and  _265
REMARK  110  A    between atoms: _269  and  _271
REMARK  111  A    between atoms: _271  and  _272
REMARK  112  A    between atoms: _271  and  _274
REMARK  113  A    between atoms: _274  and  _275
REMARK  114  A    between atoms: _281  and  _283
REMARK  115  A    between atoms: _283  and  _284
REMARK  116  A    between atoms: _286  and  _288
REMARK  117  A    between atoms: _288  and  _289
REMARK  118  A    between atoms: _288  and  _291
REMARK  119  A    between atoms: _291  and  _292
REMARK  120  A    between atoms: _295  and  _297
REMARK  121  A    between atoms: _297  and  _298
REMARK  122  A    between atoms: _297  and  _300
REMARK  123  A    between atoms: _300  and  _301
REMARK  124  A    between atoms: _304  and  _306
REMARK  125  A    between atoms: _306  and  _307
REMARK  126  A    between atoms: _306  and  _309
REMARK  127  A    between atoms: _309  and  _310
REMARK  128  A    between atoms: _310  and  _311
REMARK  129  A    between atoms: _313  and  _315
REMARK  130  A    between atoms: _315  and  _316
REMARK  131  A    between atoms: _319  and  _321
REMARK  132  A    between atoms: _321  and  _322
REMARK  133  A    between atoms: _321  and  _324
REMARK  134  A    between atoms: _324  and  _325
REMARK  135  A    between atoms: _328  and  _330
REMARK  136  A    between atoms: _330  and  _331
REMARK  137  A    between atoms: _330  and  _333
REMARK  138  A    between atoms: _333  and  _334
REMARK  139  A    between atoms: _336  and  _338
REMARK  140  A    between atoms: _338  and  _339
REMARK  141  A    between atoms: _338  and  _341
REMARK  142  A    between atoms: _344  and  _346
REMARK  143  A    between atoms: _346  and  _347
REMARK  144  A    between atoms: _346  and  _349
REMARK  145  A    between atoms: _349  and  _350
REMARK  146  A    between atoms: _350  and  _351
REMARK  147  A    between atoms: _351  and  _352
REMARK  148  A    between atoms: _361  and  _363
REMARK  149  A    between atoms: _363  and  _364
REMARK  150  A    between atoms: _363  and  _366
REMARK  151  A    between atoms: _366  and  _367
REMARK  152  A    between atoms: _367  and  _368
REMARK  153  A    between atoms: _368  and  _369
REMARK  154  A    between atoms: _378  and  _380
REMARK  155  A    between atoms: _380  and  _381
REMARK  156  A    between atoms: _380  and  _383
REMARK  157  A    between atoms: _383  and  _384
REMARK  158  A    between atoms: _389  and  _390
REMARK  159  A    between atoms: _392  and  _394
REMARK  160  A    between atoms: _394  and  _395
REMARK  161  A    between atoms: _394  and  _397
REMARK  162  A    between atoms: _397  and  _398
REMARK  163  A    between atoms: _398  and  _399
REMARK  164  A    between atoms: _404  and  _406
REMARK  165  A    between atoms: _406  and  _407
REMARK  166  A    between atoms: _406  and  _409
REMARK  167  A    between atoms: _409  and  _410
REMARK  168  A    between atoms: _413  and  _415
REMARK  169  A    between atoms: _415  and  _416
REMARK  170  A    between atoms: _415  and  _418
REMARK  171  A    between atoms: _421  and  _423
REMARK  172  A    between atoms: _423  and  _424
REMARK  173  A    between atoms: _423  and  _426
REMARK  174  A    between atoms: _426  and  _427
REMARK  175  A    between atoms: _430  and  _432
REMARK  176  A    between atoms: _432  and  _433
REMARK  177  A    between atoms: _432  and  _435
REMARK  178  A    between atoms: _435  and  _436
REMARK  179  A    between atoms: _439  and  _441
REMARK  180  A    between atoms: _441  and  _442
REMARK  181  A    between atoms: _444  and  _446
REMARK  182  A    between atoms: _446  and  _447
REMARK  183  A    between atoms: _446  and  _449
REMARK  184  A    between atoms: _449  and  _450
REMARK  185  A    between atoms: _453  and  _455
REMARK  186  A    between atoms: _455  and  _456
REMARK  187  A    between atoms: _455  and  _458
REMARK  188  A    between atoms: _458  and  _459
REMARK  189  A    between atoms: _461  and  _463
REMARK  190  A    between atoms: _463  and  _464
REMARK  191  A    between atoms: _463  and  _466
REMARK  192  A    between atoms: _466  and  _467
REMARK  193  A    between atoms: _470  and  _472
REMARK  194  A    between atoms: _472  and  _473
REMARK  195  A    between atoms: _472  and  _475
REMARK  196  A    between atoms: _475  and  _476
REMARK  197  A    between atoms: _476  and  _477
REMARK  198  A    between atoms: _479  and  _481
REMARK  199  A    between atoms: _481  and  _482
REMARK  200  A    between atoms: _481  and  _484
REMARK  201  A    between atoms: _487  and  _489
REMARK  202  A    between atoms: _489  and  _490
REMARK  203  A    between atoms: _489  and  _492
REMARK  204  A    between atoms: _492  and  _493
REMARK  205  A    between atoms: _496  and  _498
REMARK  206  A    between atoms: _498  and  _499
REMARK  207  A    between atoms: _498  and  _501
REMARK  208  A    between atoms: _501  and  _502
REMARK  209  A    between atoms: _502  and  _503
REMARK  210  A    between atoms: _508  and  _510
REMARK  211  A    between atoms: _510  and  _511
REMARK  212  A    between atoms: _510  and  _513
REMARK  213  A    between atoms: _513  and  _514
REMARK  214  A    between atoms: _514  and  _515
REMARK  215  A    between atoms: _518  and  _520
REMARK  216  A    between atoms: _520  and  _521
REMARK  217  A    between atoms: _520  and  _523
REMARK  218  A    between atoms: _523  and  _524
REMARK  219  A    between atoms: _527  and  _529
REMARK  220  A    between atoms: _529  and  _530
REMARK  221  A    between atoms: _529  and  _532
REMARK  222  A    between atoms: _535  and  _537
REMARK  223  A    between atoms: _537  and  _538
REMARK  224  A    between atoms: _537  and  _540
REMARK  225  A    between atoms: _540  and  _541
REMARK  226  A    between atoms: _544  and  _546
REMARK  227  A    between atoms: _546  and  _547
REMARK  228  A    between atoms: _546  and  _549
REMARK  229  A    between atoms: _549  and  _550
REMARK  230  A    between atoms: _552  and  _554
REMARK  231  A    between atoms: _554  and  _555
REMARK  232  A    between atoms: _554  and  _557
REMARK  233  A    between atoms: _557  and  _558
REMARK  234  A    between atoms: _558  and  _559
REMARK  235  A    between atoms: _561  and  _563
REMARK  236  A    between atoms: _563  and  _564
REMARK  237  A    between atoms: _563  and  _566
REMARK  238  A    between atoms: _566  and  _567
REMARK  239  A    between atoms: _567  and  _568
REMARK  240  A    between atoms: _570  and  _572
REMARK  241  A    between atoms: _572  and  _573
REMARK  242  A    between atoms: _572  and  _575
REMARK  243  A    between atoms: _575  and  _576
REMARK  244  A    between atoms: _579  and  _581
REMARK  245  A    between atoms: _581  and  _582
REMARK  246  A    between atoms: _581  and  _584
REMARK  247  A    between atoms: _584  and  _585
REMARK  248  A    between atoms: _589  and  _590
REMARK  249  A    between atoms: _595  and  _597
REMARK  250  A    between atoms: _597  and  _598
REMARK  251  A    between atoms: _597  and  _600
REMARK  252  A    between atoms: _600  and  _601
REMARK  253  A    between atoms: _603  and  _605
REMARK  254  A    between atoms: _605  and  _606
REMARK  255  A    between atoms: _608  and  _610
REMARK  256  A    between atoms: _610  and  _611
REMARK  257  A    between atoms: _610  and  _613
REMARK  258  A    between atoms: _613  and  _614
REMARK  259  A    between atoms: _617  and  _619
REMARK  260  A    between atoms: _619  and  _620
REMARK  261  A    between atoms: _619  and  _622
REMARK  262  A    between atoms: _622  and  _623
REMARK  263  A    between atoms: _626  and  _628
REMARK  264  A    between atoms: _628  and  _629
REMARK  265  A    between atoms: _631  and  _633
REMARK  266  A    between atoms: _633  and  _634
REMARK  267  A    between atoms: _633  and  _636
REMARK  268  A    between atoms: _636  and  _637
REMARK                            x       y       z     vdW  Elec       q    Type
REMARK                         _______ _______ _______ _____ _____    ______ ____
ROOT
ATOM      1  CA  LEU A   1      31.485  81.438   6.810  0.00  0.00    +0.133 C 
ENDROOT
BRANCH   1   2
ATOM      2  N   LEU A   1      32.768  82.091   6.784  0.00  0.00    -0.239 NA
ATOM      3  H   LEU A   1      33.126  82.515   5.904  0.00  0.00    +0.142 HD
ENDBRANCH   1   2
BRANCH   1   4
ATOM      4  C   LEU A   1      31.332  80.653   5.545  0.00  0.00    +0.224 C 
ATOM      5  O   LEU A   1      31.541  81.213   4.474  0.00  0.00    -0.287 OA
ENDBRANCH   1   4
BRANCH   1   6
ATOM      6  CB  LEU A   1      30.498  82.561   6.962  0.00  0.00    +0.025 C 
BRANCH   6   7
ATOM      7  CG  LEU A   1      29.050  82.380   7.273  0.00  0.00    +0.002 C 
ATOM      8  CD2 LEU A   1      28.620  83.550   8.125  0.00  0.00    +0.000 C 
ATOM      9  CD1 LEU A   1      28.235  82.348   6.011  0.00  0.00    +0.000 C 
ENDBRANCH   6   7
ENDBRANCH   1   6
TORSDOF 4
REMARK  Name = ../refined-set-2016/1lyb/1lyb_pocket.pdb
REMARK  268 active torsions:
REMARK  status: ('A' for Active; 'I' for Inactive)
REMARK    1  A    between atoms: _1  and  _3
REMARK    2  A    between atoms: _3  and  _4
REMARK    3  A    between atoms: _3  and  _6
REMARK    4  A    between atoms: _6  and  _7
REMARK    5  A    between atoms: _7  and  _8
REMARK    6  A    between atoms: _10  and  _12
REMARK    7  A    between atoms: _12  and  _13
REMARK    8  A    between atoms: _12  and  _15
REMARK    9  A    between atoms: _15  and  _16
REMARK   10  A    between atoms: _19  and  _21
REMARK   11  A    between atoms: _21  and  _22
REMARK   12  A    between atoms: _25  and  _27
REMARK   13  A    between atoms: _27  and  _28
REMARK   14  A    between atoms: _27  and  _30
REMARK   15  A    between atoms: _30  and  _31
REMARK   16  A    between atoms: _31  and  _32
REMARK   17  A    between atoms: _37  and  _39
REMARK   18  A    between atoms: _39  and  _40
REMARK   19  A    between atoms: _39  and  _42
REMARK   20  A    between atoms: _42  and  _43
REMARK   21  A    between atoms: _48  and  _49
REMARK   22  A    between atoms: _51  and  _53
REMARK   23  A    between atoms: _53  and  _54
REMARK   24  A    between atoms: _53  and  _56
REMARK   25  A    between atoms: _59  and  _61
REMARK   26  A    between atoms: _61  and  _62
REMARK   27  A    between atoms: _61  and  _64
REMARK   28  A    between atoms: _67  and  _69
REMARK   29  A    between atoms: _69  and  _70
REMARK   30  A    between atoms: _69  and  _72
REMARK   31  A    between atoms: _72  and  _73
REMARK   32  A    between atoms: _79  and  _81
REMARK   33  A    between atoms: _81  and  _82
REMARK   34  A    between atoms: _81  and  _84
REMARK   35  A    between atoms: _84  and  _85
REMARK   36  A    between atoms: _88  and  _90
REMARK   37  A    between atoms: _90  and  _91
REMARK   38  A    between atoms: _90  and  _93
REMARK   39  A    between atoms: _93  and  _94
REMARK   40  A    between atoms: _97  and  _99
REMARK   41  A    between atoms: _99  and  _100
REMARK   42  A    between atoms: _102  and  _104
REMARK   43  A    between atoms: _104  and  _105
REMARK   44  A    between atoms: _104  and  _107
REMARK   45  A    between atoms: _107  and  _108
REMARK   46  A    between atoms: _110  and  _112
REMARK   47  A    between atoms: _112  and  _113
REMARK   48  A    between atoms: _112  and  _115
REMARK   49  A    between atoms: _115  and  _116
REMARK   50  A    between atoms: _118  and  _120
REMARK   51  A    between atoms: _120  and  _121
REMARK   52  A    between atoms: _120  and  _123
REMARK   53  A    between atoms: _123  and  _124
REMARK   54  A    between atoms: _129  and  _131
REMARK   55  A    between atoms: _131  and  _132
REMARK   56  A    between atoms: _131  and  _134
REMARK   57  A    between atoms: _134  and  _135
REMARK   58  A    between atoms: _145  and  _147
REMARK   59  A    between atoms: _147  and  _148
REMARK   60  A    between atoms: _147  and  _150
REMARK   61  A    between atoms: _150  and  _151
REMARK   62  A    between atoms: _154  and  _156
REMARK   63  A    between atoms: _156  and  _157
REMARK   64  A    between atoms: _156  and  _159
REMARK   65  A    between atoms: _159  and  _160
REMARK   66  A    between atoms: _163  and  _165
REMARK   67  A    between atoms: _165  and  _166
REMARK   68  A    between atoms: _165  and  _168
REMARK   69  A    between atoms: _168  and  _169
REMARK   70  A    between atoms: _174  and  _176
REMARK   71  A    between atoms: _176  and  _177
REMARK   72  A    between atoms: _176  and  _179
REMARK   73  A    between atoms: _179  and  _180
REMARK   74  A    between atoms: _185  and  _186
REMARK   75  A    between atoms: _188  and  _190
REMARK   76  A    between atoms: _190  and  _191
REMARK   77  A    between atoms: _193  and  _195
REMARK   78  A    between atoms: _195  and  _196
REMARK   79  A    between atoms: _195  and  _198
REMARK   80  A    between atoms: _198  and  _199
REMARK   81  A    between atoms: _201  and  _203
REMARK   82  A    between atoms: _203  and  _204
REMARK   83  A    between atoms: _206  and  _208
REMARK   84  A    between atoms: _208  and  _209
REMARK   85  A    between atoms: _208  and  _211
REMARK   86  A    between atoms: _211  and  _212
REMARK   87  A    between atoms: _214  and  _216
REMARK   88  A    between atoms: _216  and  _217
REMARK   89  A    between atoms: _216  and  _219
REMARK   90  A    between atoms: _219  and  _220
REMARK   91  A    between atoms: _223  and  _225
REMARK   92  A    between atoms: _225  and  _226
REMARK   93  A    between atoms: _225  and  _228
REMARK   94  A    between atoms: _228  and  _229
REMARK   95  A    between atoms: _232  and  _234
REMARK   96  A    between atoms: _234  and  _235
REMARK   97  A    between atoms: _234  and  _237
REMARK   98  A    between atoms: _237  and  _238
REMARK   99  A    between atoms: _244  and  _246
REMARK  100  A    between atoms: _246  and  _247
REMARK  101  A    between atoms: _250  and  _252
REMARK  102  A    between atoms: _252  and  _253
REMARK  103  A    between atoms: _256  and  _258
REMARK  104  A    between atoms: _258  and  _259
REMARK  105  A    between atoms: _258  and  _261
REMARK  106  A    between atoms: _261  and  _262
REMARK  107  A    between atoms: _262  and  _263
REMARK  108  A    between atoms: _263  and  _264
REMARK  109  A    between atoms: _264  and  _265
REMARK  110  A    between atoms: _269  and  _271
REMARK  111  A    between atoms: _271  and  _272
REMARK  112  A    between atoms: _271  and  _274
REMARK  113  A    between atoms: _274  and  _275
REMARK  114  A    between atoms: _281  and  _283
REMARK  115  A    between atoms: _283  and  _284
REMARK  116  A    between atoms: _286  and  _288
REMARK  117  A    between atoms: _288  and  _289
REMARK  118  A    between atoms: _288  and  _291
REMARK  119  A    between atoms: _291  and  _292
REMARK  120  A    between atoms: _295  and  _297
REMARK  121  A    between atoms: _297  and  _298
REMARK  122  A    between atoms: _297  and  _300
REMARK  123  A    between atoms: _300  and  _301
REMARK  124  A    between atoms: _304  and  _306
REMARK  125  A    between atoms: _306  and  _307
REMARK  126  A    between atoms: _306  and  _309
REMARK  127  A    between atoms: _309  and  _310
REMARK  128  A    between atoms: _310  and  _311
REMARK  129  A    between atoms: _313  and  _315
REMARK  130  A    between atoms: _315  and  _316
REMARK  131  A    between atoms: _319  and  _321
REMARK  132  A    between atoms: _321  and  _322
REMARK  133  A    between atoms: _321  and  _324
REMARK  134  A    between atoms: _324  and  _325
REMARK  135  A    between atoms: _328  and  _330
REMARK  136  A    between atoms: _330  and  _331
REMARK  137  A    between atoms: _330  and  _333
REMARK  138  A    between atoms: _333  and  _334
REMARK  139  A    between atoms: _336  and  _338
REMARK  140  A    between atoms: _338  and  _339
REMARK  141  A    between atoms: _338  and  _341
REMARK  142  A    between atoms: _344  and  _346
REMARK  143  A    between atoms: _346  and  _347
REMARK  144  A    between atoms: _346  and  _349
REMARK  145  A    between atoms: _349  and  _350
REMARK  146  A    between atoms: _350  and  _351
REMARK  147  A    between atoms: _351  and  _352
REMARK  148  A    between atoms: _361  and  _363
REMARK  149  A    between atoms: _363  and  _364
REMARK  150  A    between atoms: _363  and  _366
REMARK  151  A    between atoms: _366  and  _367
REMARK  152  A    between atoms: _367  and  _368
REMARK  153  A    between atoms: _368  and  _369
REMARK  154  A    between atoms: _378  and  _380
REMARK  155  A    between atoms: _380  and  _381
REMARK  156  A    between atoms: _380  and  _383
REMARK  157  A    between atoms: _383  and  _384
REMARK  158  A    between atoms: _389  and  _390
REMARK  159  A    between atoms: _392  and  _394
REMARK  160  A    between atoms: _394  and  _395
REMARK  161  A    between atoms: _394  and  _397
REMARK  162  A    between atoms: _397  and  _398
REMARK  163  A    between atoms: _398  and  _399
REMARK  164  A    between atoms: _404  and  _406
REMARK  165  A    between atoms: _406  and  _407
REMARK  166  A    between atoms: _406  and  _409
REMARK  167  A    between atoms: _409  and  _410
REMARK  168  A    between atoms: _413  and  _415
REMARK  169  A    between atoms: _415  and  _416
REMARK  170  A    between atoms: _415  and  _418
REMARK  171  A    between atoms: _421  and  _423
REMARK  172  A    between atoms: _423  and  _424
REMARK  173  A    between atoms: _423  and  _426
REMARK  174  A    between atoms: _426  and  _427
REMARK  175  A    between atoms: _430  and  _432
REMARK  176  A    between atoms: _432  and  _433
REMARK  177  A    between atoms: _432  and  _435
REMARK  178  A    between atoms: _435  and  _436
REMARK  179  A    between atoms: _439  and  _441
REMARK  180  A    between atoms: _441  and  _442
REMARK  181  A    between atoms: _444  and  _446
REMARK  182  A    between atoms: _446  and  _447
REMARK  183  A    between atoms: _446  and  _449
REMARK  184  A    between atoms: _449  and  _450
REMARK  185  A    between atoms: _453  and  _455
REMARK  186  A    between atoms: _455  and  _456
REMARK  187  A    between atoms: _455  and  _458
REMARK  188  A    between atoms: _458  and  _459
REMARK  189  A    between atoms: _461  and  _463
REMARK  190  A    between atoms: _463  and  _464
REMARK  191  A    between atoms: _463  and  _466
REMARK  192  A    between atoms: _466  and  _467
REMARK  193  A    between atoms: _470  and  _472
REMARK  194  A    between atoms: _472  and  _473
REMARK  195  A    between atoms: _472  and  _475
REMARK  196  A    between atoms: _475  and  _476
REMARK  197  A    between atoms: _476  and  _477
REMARK  198  A    between atoms: _479  and  _481
REMARK  199  A    between atoms: _481  and  _482
REMARK  200  A    between atoms: _481  and  _484
REMARK  201  A    between atoms: _487  and  _489
REMARK  202  A    between atoms: _489  and  _490
REMARK  203  A    between atoms: _489  and  _492
REMARK  204  A    between atoms: _492  and  _493
REMARK  205  A    between atoms: _496  and  _498
REMARK  206  A    between atoms: _498  and  _499
REMARK  207  A    between atoms: _498  and  _501
REMARK  208  A    between atoms: _501  and  _502
REMARK  209  A    between atoms: _502  and  _503
REMARK  210  A    between atoms: _508  and  _510
REMARK  211  A    between atoms: _510  and  _511
REMARK  212  A    between atoms: _510  and  _513
REMARK  213  A    between atoms: _513  and  _514
REMARK  214  A    between atoms: _514  and  _515
REMARK  215  A    between atoms: _518  and  _520
REMARK  216  A    between atoms: _520  and  _521
REMARK  217  A    between atoms: _520  and  _523
REMARK  218  A    between atoms: _523  and  _524
REMARK  219  A    between atoms: _527  and  _529
REMARK  220  A    between atoms: _529  and  _530
REMARK  221  A    between atoms: _529  and  _532
REMARK  222  A    between atoms: _535  and  _537
REMARK  223  A    between atoms: _537  and  _538
REMARK  224  A    between atoms: _537  and  _540
REMARK  225  A    between atoms: _540  and  _541
REMARK  226  A    between atoms: _544  and  _546
REMARK  227  A    between atoms: _546  and  _547
REMARK  228  A    between atoms: _546  and  _549
REMARK  229  A    between atoms: _549  and  _550
REMARK  230  A    between atoms: _552  and  _554
REMARK  231  A    between atoms: _554  and  _555
REMARK  232  A    between atoms: _554  and  _557
REMARK  233  A    between atoms: _557  and  _558
REMARK  234  A    between atoms: _558  and  _559
REMARK  235  A    between atoms: _561  and  _563
REMARK  236  A    between atoms: _563  and  _564
REMARK  237  A    between atoms: _563  and  _566
REMARK  238  A    between atoms: _566  and  _567
REMARK  239  A    between atoms: _567  and  _568
REMARK  240  A    between atoms: _570  and  _572
REMARK  241  A    between atoms: _572  and  _573
REMARK  242  A    between atoms: _572  and  _575
REMARK  243  A    between atoms: _575  and  _576
REMARK  244  A    between atoms: _579  and  _581
REMARK  245  A    between atoms: _581  and  _582
REMARK  246  A    between atoms: _581  and  _584
REMARK  247  A    between atoms: _584  and  _585
REMARK  248  A    between atoms: _589  and  _590
REMARK  249  A    between atoms: _595  and  _597
REMARK  250  A    between atoms: _597  and  _598
REMARK  251  A    between atoms: _597  and  _600
REMARK  252  A    between atoms: _600  and  _601
REMARK  253  A    between atoms: _603  and  _605
REMARK  254  A    between atoms: _605  and  _606
REMARK  255  A    between atoms: _608  and  _610
REMARK  256  A    between atoms: _610  and  _611
REMARK  257  A    between atoms: _610  and  _613
REMARK  258  A    between atoms: _613  and  _614
REMARK  259  A    between atoms: _617  and  _619
REMARK  260  A    between atoms: _619  and  _620
REMARK  261  A    between atoms: _619  and  _622
REMARK  262  A    between atoms: _622  and  _623
REMARK  263  A    between atoms: _626  and  _628
REMARK  264  A    between atoms: _628  and  _629
REMARK  265  A    between atoms: _631  and  _633
REMARK  266  A    between atoms: _633  and  _634
REMARK  267  A    between atoms: _633  and  _636
REMARK  268  A    between atoms: _636  and  _637
REMARK                            x       y       z     vdW  Elec       q    Type
REMARK                         _______ _______ _______ _____ _____    ______ ____
ROOT
ATOM      1  CA  VAL A   1      28.113  79.072   1.828  0.00  0.00    +0.133 C 
ENDROOT
BRANCH   1   2
ATOM      2  CB  VAL A   1      27.984  80.547   1.311  0.00  0.00    +0.023 C 
ATOM      3  CG2 VAL A   1      28.106  81.489   2.478  0.00  0.00    +0.002 C 
ATOM      4  CG1 VAL A   1      29.053  80.894   0.299  0.00  0.00    +0.002 C 
ENDBRANCH   1   2
BRANCH   1   5
ATOM      5  N   VAL A   1      29.420  78.826   2.467  0.00  0.00    -0.239 NA
ATOM      6  H   VAL A   1      30.274  78.749   1.878  0.00  0.00    +0.142 HD
ENDBRANCH   1   5
BRANCH   1   7
ATOM      7  C   VAL A   1      27.924  78.126   0.639  0.00  0.00    +0.224 C 
ATOM      8  O   VAL A   1      28.602  77.094   0.521  0.00  0.00    -0.287 OA
ENDBRANCH   1   7
TORSDOF 3
REMARK  Name = ../refined-set-2016/1lyb/1lyb_pocket.pdb
REMARK  268 active torsions:
REMARK  status: ('A' for Active; 'I' for Inactive)
REMARK    1  A    between atoms: _1  and  _3
REMARK    2  A    between atoms: _3  and  _4
REMARK    3  A    between atoms: _3  and  _6
REMARK    4  A    between atoms: _6  and  _7
REMARK    5  A    between atoms: _7  and  _8
REMARK    6  A    between atoms: _10  and  _12
REMARK    7  A    between atoms: _12  and  _13
REMARK    8  A    between atoms: _12  and  _15
REMARK    9  A    between atoms: _15  and  _16
REMARK   10  A    between atoms: _19  and  _21
REMARK   11  A    between atoms: _21  and  _22
REMARK   12  A    between atoms: _25  and  _27
REMARK   13  A    between atoms: _27  and  _28
REMARK   14  A    between atoms: _27  and  _30
REMARK   15  A    between atoms: _30  and  _31
REMARK   16  A    between atoms: _31  and  _32
REMARK   17  A    between atoms: _37  and  _39
REMARK   18  A    between atoms: _39  and  _40
REMARK   19  A    between atoms: _39  and  _42
REMARK   20  A    between atoms: _42  and  _43
REMARK   21  A    between atoms: _48  and  _49
REMARK   22  A    between atoms: _51  and  _53
REMARK   23  A    between atoms: _53  and  _54
REMARK   24  A    between atoms: _53  and  _56
REMARK   25  A    between atoms: _59  and  _61
REMARK   26  A    between atoms: _61  and  _62
REMARK   27  A    between atoms: _61  and  _64
REMARK   28  A    between atoms: _67  and  _69
REMARK   29  A    between atoms: _69  and  _70
REMARK   30  A    between atoms: _69  and  _72
REMARK   31  A    between atoms: _72  and  _73
REMARK   32  A    between atoms: _79  and  _81
REMARK   33  A    between atoms: _81  and  _82
REMARK   34  A    between atoms: _81  and  _84
REMARK   35  A    between atoms: _84  and  _85
REMARK   36  A    between atoms: _88  and  _90
REMARK   37  A    between atoms: _90  and  _91
REMARK   38  A    between atoms: _90  and  _93
REMARK   39  A    between atoms: _93  and  _94
REMARK   40  A    between atoms: _97  and  _99
REMARK   41  A    between atoms: _99  and  _100
REMARK   42  A    between atoms: _102  and  _104
REMARK   43  A    between atoms: _104  and  _105
REMARK   44  A    between atoms: _104  and  _107
REMARK   45  A    between atoms: _107  and  _108
REMARK   46  A    between atoms: _110  and  _112
REMARK   47  A    between atoms: _112  and  _113
REMARK   48  A    between atoms: _112  and  _115
REMARK   49  A    between atoms: _115  and  _116
REMARK   50  A    between atoms: _118  and  _120
REMARK   51  A    between atoms: _120  and  _121
REMARK   52  A    between atoms: _120  and  _123
REMARK   53  A    between atoms: _123  and  _124
REMARK   54  A    between atoms: _129  and  _131
REMARK   55  A    between atoms: _131  and  _132
REMARK   56  A    between atoms: _131  and  _134
REMARK   57  A    between atoms: _134  and  _135
REMARK   58  A    between atoms: _145  and  _147
REMARK   59  A    between atoms: _147  and  _148
REMARK   60  A    between atoms: _147  and  _150
REMARK   61  A    between atoms: _150  and  _151
REMARK   62  A    between atoms: _154  and  _156
REMARK   63  A    between atoms: _156  and  _157
REMARK   64  A    between atoms: _156  and  _159
REMARK   65  A    between atoms: _159  and  _160
REMARK   66  A    between atoms: _163  and  _165
REMARK   67  A    between atoms: _165  and  _166
REMARK   68  A    between atoms: _165  and  _168
REMARK   69  A    between atoms: _168  and  _169
REMARK   70  A    between atoms: _174  and  _176
REMARK   71  A    between atoms: _176  and  _177
REMARK   72  A    between atoms: _176  and  _179
REMARK   73  A    between atoms: _179  and  _180
REMARK   74  A    between atoms: _185  and  _186
REMARK   75  A    between atoms: _188  and  _190
REMARK   76  A    between atoms: _190  and  _191
REMARK   77  A    between atoms: _193  and  _195
REMARK   78  A    between atoms: _195  and  _196
REMARK   79  A    between atoms: _195  and  _198
REMARK   80  A    between atoms: _198  and  _199
REMARK   81  A    between atoms: _201  and  _203
REMARK   82  A    between atoms: _203  and  _204
REMARK   83  A    between atoms: _206  and  _208
REMARK   84  A    between atoms: _208  and  _209
REMARK   85  A    between atoms: _208  and  _211
REMARK   86  A    between atoms: _211  and  _212
REMARK   87  A    between atoms: _214  and  _216
REMARK   88  A    between atoms: _216  and  _217
REMARK   89  A    between atoms: _216  and  _219
REMARK   90  A    between atoms: _219  and  _220
REMARK   91  A    between atoms: _223  and  _225
REMARK   92  A    between atoms: _225  and  _226
REMARK   93  A    between atoms: _225  and  _228
REMARK   94  A    between atoms: _228  and  _229
REMARK   95  A    between atoms: _232  and  _234
REMARK   96  A    between atoms: _234  and  _235
REMARK   97  A    between atoms: _234  and  _237
REMARK   98  A    between atoms: _237  and  _238
REMARK   99  A    between atoms: _244  and  _246
REMARK  100  A    between atoms: _246  and  _247
REMARK  101  A    between atoms: _250  and  _252
REMARK  102  A    between atoms: _252  and  _253
REMARK  103  A    between atoms: _256  and  _258
REMARK  104  A    between atoms: _258  and  _259
REMARK  105  A    between atoms: _258  and  _261
REMARK  106  A    between atoms: _261  and  _262
REMARK  107  A    between atoms: _262  and  _263
REMARK  108  A    between atoms: _263  and  _264
REMARK  109  A    between atoms: _264  and  _265
REMARK  110  A    between atoms: _269  and  _271
REMARK  111  A    between atoms: _271  and  _272
REMARK  112  A    between atoms: _271  and  _274
REMARK  113  A    between atoms: _274  and  _275
REMARK  114  A    between atoms: _281  and  _283
REMARK  115  A    between atoms: _283  and  _284
REMARK  116  A    between atoms: _286  and  _288
REMARK  117  A    between atoms: _288  and  _289
REMARK  118  A    between atoms: _288  and  _291
REMARK  119  A    between atoms: _291  and  _292
REMARK  120  A    between atoms: _295  and  _297
REMARK  121  A    between atoms: _297  and  _298
REMARK  122  A    between atoms: _297  and  _300
REMARK  123  A    between atoms: _300  and  _301
REMARK  124  A    between atoms: _304  and  _306
REMARK  125  A    between atoms: _306  and  _307
REMARK  126  A    between atoms: _306  and  _309
REMARK  127  A    between atoms: _309  and  _310
REMARK  128  A    between atoms: _310  and  _311
REMARK  129  A    between atoms: _313  and  _315
REMARK  130  A    between atoms: _315  and  _316
REMARK  131  A    between atoms: _319  and  _321
REMARK  132  A    between atoms: _321  and  _322
REMARK  133  A    between atoms: _321  and  _324
REMARK  134  A    between atoms: _324  and  _325
REMARK  135  A    between atoms: _328  and  _330
REMARK  136  A    between atoms: _330  and  _331
REMARK  137  A    between atoms: _330  and  _333
REMARK  138  A    between atoms: _333  and  _334
REMARK  139  A    between atoms: _336  and  _338
REMARK  140  A    between atoms: _338  and  _339
REMARK  141  A    between atoms: _338  and  _341
REMARK  142  A    between atoms: _344  and  _346
REMARK  143  A    between atoms: _346  and  _347
REMARK  144  A    between atoms: _346  and  _349
REMARK  145  A    between atoms: _349  and  _350
REMARK  146  A    between atoms: _350  and  _351
REMARK  147  A    between atoms: _351  and  _352
REMARK  148  A    between atoms: _361  and  _363
REMARK  149  A    between atoms: _363  and  _364
REMARK  150  A    between atoms: _363  and  _366
REMARK  151  A    between atoms: _366  and  _367
REMARK  152  A    between atoms: _367  and  _368
REMARK  153  A    between atoms: _368  and  _369
REMARK  154  A    between atoms: _378  and  _380
REMARK  155  A    between atoms: _380  and  _381
REMARK  156  A    between atoms: _380  and  _383
REMARK  157  A    between atoms: _383  and  _384
REMARK  158  A    between atoms: _389  and  _390
REMARK  159  A    between atoms: _392  and  _394
REMARK  160  A    between atoms: _394  and  _395
REMARK  161  A    between atoms: _394  and  _397
REMARK  162  A    between atoms: _397  and  _398
REMARK  163  A    between atoms: _398  and  _399
REMARK  164  A    between atoms: _404  and  _406
REMARK  165  A    between atoms: _406  and  _407
REMARK  166  A    between atoms: _406  and  _409
REMARK  167  A    between atoms: _409  and  _410
REMARK  168  A    between atoms: _413  and  _415
REMARK  169  A    between atoms: _415  and  _416
REMARK  170  A    between atoms: _415  and  _418
REMARK  171  A    between atoms: _421  and  _423
REMARK  172  A    between atoms: _423  and  _424
REMARK  173  A    between atoms: _423  and  _426
REMARK  174  A    between atoms: _426  and  _427
REMARK  175  A    between atoms: _430  and  _432
REMARK  176  A    between atoms: _432  and  _433
REMARK  177  A    between atoms: _432  and  _435
REMARK  178  A    between atoms: _435  and  _436
REMARK  179  A    between atoms: _439  and  _441
REMARK  180  A    between atoms: _441  and  _442
REMARK  181  A    between atoms: _444  and  _446
REMARK  182  A    between atoms: _446  and  _447
REMARK  183  A    between atoms: _446  and  _449
REMARK  184  A    between atoms: _449  and  _450
REMARK  185  A    between atoms: _453  and  _455
REMARK  186  A    between atoms: _455  and  _456
REMARK  187  A    between atoms: _455  and  _458
REMARK  188  A    between atoms: _458  and  _459
REMARK  189  A    between atoms: _461  and  _463
REMARK  190  A    between atoms: _463  and  _464
REMARK  191  A    between atoms: _463  and  _466
REMARK  192  A    between atoms: _466  and  _467
REMARK  193  A    between atoms: _470  and  _472
REMARK  194  A    between atoms: _472  and  _473
REMARK  195  A    between atoms: _472  and  _475
REMARK  196  A    between atoms: _475  and  _476
REMARK  197  A    between atoms: _476  and  _477
REMARK  198  A    between atoms: _479  and  _481
REMARK  199  A    between atoms: _481  and  _482
REMARK  200  A    between atoms: _481  and  _484
REMARK  201  A    between atoms: _487  and  _489
REMARK  202  A    between atoms: _489  and  _490
REMARK  203  A    between atoms: _489  and  _492
REMARK  204  A    between atoms: _492  and  _493
REMARK  205  A    between atoms: _496  and  _498
REMARK  206  A    between atoms: _498  and  _499
REMARK  207  A    between atoms: _498  and  _501
REMARK  208  A    between atoms: _501  and  _502
REMARK  209  A    between atoms: _502  and  _503
REMARK  210  A    between atoms: _508  and  _510
REMARK  211  A    between atoms: _510  and  _511
REMARK  212  A    between atoms: _510  and  _513
REMARK  213  A    between atoms: _513  and  _514
REMARK  214  A    between atoms: _514  and  _515
REMARK  215  A    between atoms: _518  and  _520
REMARK  216  A    between atoms: _520  and  _521
REMARK  217  A    between atoms: _520  and  _523
REMARK  218  A    between atoms: _523  and  _524
REMARK  219  A    between atoms: _527  and  _529
REMARK  220  A    between atoms: _529  and  _530
REMARK  221  A    between atoms: _529  and  _532
REMARK  222  A    between atoms: _535  and  _537
REMARK  223  A    between atoms: _537  and  _538
REMARK  224  A    between atoms: _537  and  _540
REMARK  225  A    between atoms: _540  and  _541
REMARK  226  A    between atoms: _544  and  _546
REMARK  227  A    between atoms: _546  and  _547
REMARK  228  A    between atoms: _546  and  _549
REMARK  229  A    between atoms: _549  and  _550
REMARK  230  A    between atoms: _552  and  _554
REMARK  231  A    between atoms: _554  and  _555
REMARK  232  A    between atoms: _554  and  _557
REMARK  233  A    between atoms: _557  and  _558
REMARK  234  A    between atoms: _558  and  _559
REMARK  235  A    between atoms: _561  and  _563
REMARK  236  A    between atoms: _563  and  _564
REMARK  237  A    between atoms: _563  and  _566
REMARK  238  A    between atoms: _566  and  _567
REMARK  239  A    between atoms: _567  and  _568
REMARK  240  A    between atoms: _570  and  _572
REMARK  241  A    between atoms: _572  and  _573
REMARK  242  A    between atoms: _572  and  _575
REMARK  243  A    between atoms: _575  and  _576
REMARK  244  A    between atoms: _579  and  _581
REMARK  245  A    between atoms: _581  and  _582
REMARK  246  A    between atoms: _581  and  _584
REMARK  247  A    between atoms: _584  and  _585
REMARK  248  A    between atoms: _589  and  _590
REMARK  249  A    between atoms: _595  and  _597
REMARK  250  A    between atoms: _597  and  _598
REMARK  251  A    between atoms: _597  and  _600
REMARK  252  A    between atoms: _600  and  _601
REMARK  253  A    between atoms: _603  and  _605
REMARK  254  A    between atoms: _605  and  _606
REMARK  255  A    between atoms: _608  and  _610
REMARK  256  A    between atoms: _610  and  _611
REMARK  257  A    between atoms: _610  and  _613
REMARK  258  A    between atoms: _613  and  _614
REMARK  259  A    between atoms: _617  and  _619
REMARK  260  A    between atoms: _619  and  _620
REMARK  261  A    between atoms: _619  and  _622
REMARK  262  A    between atoms: _622  and  _623
REMARK  263  A    between atoms: _626  and  _628
REMARK  264  A    between atoms: _628  and  _629
REMARK  265  A    between atoms: _631  and  _633
REMARK  266  A    between atoms: _633  and  _634
REMARK  267  A    between atoms: _633  and  _636
REMARK  268  A    between atoms: _636  and  _637
REMARK                            x       y       z     vdW  Elec       q    Type
REMARK                         _______ _______ _______ _____ _____    ______ ____
ROOT
ATOM      1  C   LEU A   1      33.759  84.782   4.050  0.00  0.00    +0.238 C 
ATOM      2  O   LEU A   1      34.044  83.957   4.920  0.00  0.00    -0.274 OA
ATOM      3  N   SER A   2      34.266  86.001   4.056  0.00  0.00    -0.296 N 
ATOM      4  H   SER A   2      34.067  86.617   3.242  0.00  0.00    +0.150 HD
ENDROOT
BRANCH   1   5
ATOM      5  CA  LEU A   1      32.783  84.423   2.941  0.00  0.00    +0.145 C 
BRANCH   5   6
ATOM      6  N   LEU A   1      32.831  82.991   2.779  0.00  0.00    -0.238 NA
ATOM      7  H   LEU A   1      32.121  82.407   3.265  0.00  0.00    +0.142 HD
ENDBRANCH   5   6
BRANCH   5   8
ATOM      8  CB  LEU A   1      31.399  84.876   3.367  0.00  0.00    +0.026 C 
BRANCH   8   9
ATOM      9  CG  LEU A   1      30.396  85.522   2.456  0.00  0.00    +0.002 C 
ATOM     10  CD2 LEU A   1      29.224  85.863   3.323  0.00  0.00    +0.000 C 
ATOM     11  CD1 LEU A   1      30.916  86.779   1.797  0.00  0.00    +0.000 C 
ENDBRANCH   8   9
ENDBRANCH   5   8
ENDBRANCH   1   5
BRANCH   3  12
ATOM     12  CA  SER A   2      35.084  86.532   5.129  0.00  0.00    +0.166 C 
BRANCH  12  13
ATOM     13  C   SER A   2      34.056  87.315   5.927  0.00  0.00    +0.229 C 
ATOM     14  O   SER A   2      33.372  88.214   5.414  0.00  0.00    -0.286 OA
ENDBRANCH  12  13
BRANCH  12  15
ATOM     15  CB  SER A   2      36.124  87.448   4.564  0.00  0.00    +0.165 C 
BRANCH  15  16
ATOM     16  OG  SER A   2      36.823  88.109   5.605  0.00  0.00    -0.380 OA
ATOM     17  H   SER A   2      37.506  88.710   5.213  0.00  0.00    +0.211 HD
ENDBRANCH  15  16
ENDBRANCH  12  15
ENDBRANCH   3  12
TORSDOF 8
REMARK  Name = ../refined-set-2016/1lyb/1lyb_pocket.pdb
REMARK  268 active torsions:
REMARK  status: ('A' for Active; 'I' for Inactive)
REMARK    1  A    between atoms: _1  and  _3
REMARK    2  A    between atoms: _3  and  _4
REMARK    3  A    between atoms: _3  and  _6
REMARK    4  A    between atoms: _6  and  _7
REMARK    5  A    between atoms: _7  and  _8
REMARK    6  A    between atoms: _10  and  _12
REMARK    7  A    between atoms: _12  and  _13
REMARK    8  A    between atoms: _12  and  _15
REMARK    9  A    between atoms: _15  and  _16
REMARK   10  A    between atoms: _19  and  _21
REMARK   11  A    between atoms: _21  and  _22
REMARK   12  A    between atoms: _25  and  _27
REMARK   13  A    between atoms: _27  and  _28
REMARK   14  A    between atoms: _27  and  _30
REMARK   15  A    between atoms: _30  and  _31
REMARK   16  A    between atoms: _31  and  _32
REMARK   17  A    between atoms: _37  and  _39
REMARK   18  A    between atoms: _39  and  _40
REMARK   19  A    between atoms: _39  and  _42
REMARK   20  A    between atoms: _42  and  _43
REMARK   21  A    between atoms: _48  and  _49
REMARK   22  A    between atoms: _51  and  _53
REMARK   23  A    between atoms: _53  and  _54
REMARK   24  A    between atoms: _53  and  _56
REMARK   25  A    between atoms: _59  and  _61
REMARK   26  A    between atoms: _61  and  _62
REMARK   27  A    between atoms: _61  and  _64
REMARK   28  A    between atoms: _67  and  _69
REMARK   29  A    between atoms: _69  and  _70
REMARK   30  A    between atoms: _69  and  _72
REMARK   31  A    between atoms: _72  and  _73
REMARK   32  A    between atoms: _79  and  _81
REMARK   33  A    between atoms: _81  and  _82
REMARK   34  A    between atoms: _81  and  _84
REMARK   35  A    between atoms: _84  and  _85
REMARK   36  A    between atoms: _88  and  _90
REMARK   37  A    between atoms: _90  and  _91
REMARK   38  A    between atoms: _90  and  _93
REMARK   39  A    between atoms: _93  and  _94
REMARK   40  A    between atoms: _97  and  _99
REMARK   41  A    between atoms: _99  and  _100
REMARK   42  A    between atoms: _102  and  _104
REMARK   43  A    between atoms: _104  and  _105
REMARK   44  A    between atoms: _104  and  _107
REMARK   45  A    between atoms: _107  and  _108
REMARK   46  A    between atoms: _110  and  _112
REMARK   47  A    between atoms: _112  and  _113
REMARK   48  A    between atoms: _112  and  _115
REMARK   49  A    between atoms: _115  and  _116
REMARK   50  A    between atoms: _118  and  _120
REMARK   51  A    between atoms: _120  and  _121
REMARK   52  A    between atoms: _120  and  _123
REMARK   53  A    between atoms: _123  and  _124
REMARK   54  A    between atoms: _129  and  _131
REMARK   55  A    between atoms: _131  and  _132
REMARK   56  A    between atoms: _131  and  _134
REMARK   57  A    between atoms: _134  and  _135
REMARK   58  A    between atoms: _145  and  _147
REMARK   59  A    between atoms: _147  and  _148
REMARK   60  A    between atoms: _147  and  _150
REMARK   61  A    between atoms: _150  and  _151
REMARK   62  A    between atoms: _154  and  _156
REMARK   63  A    between atoms: _156  and  _157
REMARK   64  A    between atoms: _156  and  _159
REMARK   65  A    between atoms: _159  and  _160
REMARK   66  A    between atoms: _163  and  _165
REMARK   67  A    between atoms: _165  and  _166
REMARK   68  A    between atoms: _165  and  _168
REMARK   69  A    between atoms: _168  and  _169
REMARK   70  A    between atoms: _174  and  _176
REMARK   71  A    between atoms: _176  and  _177
REMARK   72  A    between atoms: _176  and  _179
REMARK   73  A    between atoms: _179  and  _180
REMARK   74  A    between atoms: _185  and  _186
REMARK   75  A    between atoms: _188  and  _190
REMARK   76  A    between atoms: _190  and  _191
REMARK   77  A    between atoms: _193  and  _195
REMARK   78  A    between atoms: _195  and  _196
REMARK   79  A    between atoms: _195  and  _198
REMARK   80  A    between atoms: _198  and  _199
REMARK   81  A    between atoms: _201  and  _203
REMARK   82  A    between atoms: _203  and  _204
REMARK   83  A    between atoms: _206  and  _208
REMARK   84  A    between atoms: _208  and  _209
REMARK   85  A    between atoms: _208  and  _211
REMARK   86  A    between atoms: _211  and  _212
REMARK   87  A    between atoms: _214  and  _216
REMARK   88  A    between atoms: _216  and  _217
REMARK   89  A    between atoms: _216  and  _219
REMARK   90  A    between atoms: _219  and  _220
REMARK   91  A    between atoms: _223  and  _225
REMARK   92  A    between atoms: _225  and  _226
REMARK   93  A    between atoms: _225  and  _228
REMARK   94  A    between atoms: _228  and  _229
REMARK   95  A    between atoms: _232  and  _234
REMARK   96  A    between atoms: _234  and  _235
REMARK   97  A    between atoms: _234  and  _237
REMARK   98  A    between atoms: _237  and  _238
REMARK   99  A    between atoms: _244  and  _246
REMARK  100  A    between atoms: _246  and  _247
REMARK  101  A    between atoms: _250  and  _252
REMARK  102  A    between atoms: _252  and  _253
REMARK  103  A    between atoms: _256  and  _258
REMARK  104  A    between atoms: _258  and  _259
REMARK  105  A    between atoms: _258  and  _261
REMARK  106  A    between atoms: _261  and  _262
REMARK  107  A    between atoms: _262  and  _263
REMARK  108  A    between atoms: _263  and  _264
REMARK  109  A    between atoms: _264  and  _265
REMARK  110  A    between atoms: _269  and  _271
REMARK  111  A    between atoms: _271  and  _272
REMARK  112  A    between atoms: _271  and  _274
REMARK  113  A    between atoms: _274  and  _275
REMARK  114  A    between atoms: _281  and  _283
REMARK  115  A    between atoms: _283  and  _284
REMARK  116  A    between atoms: _286  and  _288
REMARK  117  A    between atoms: _288  and  _289
REMARK  118  A    between atoms: _288  and  _291
REMARK  119  A    between atoms: _291  and  _292
REMARK  120  A    between atoms: _295  and  _297
REMARK  121  A    between atoms: _297  and  _298
REMARK  122  A    between atoms: _297  and  _300
REMARK  123  A    between atoms: _300  and  _301
REMARK  124  A    between atoms: _304  and  _306
REMARK  125  A    between atoms: _306  and  _307
REMARK  126  A    between atoms: _306  and  _309
REMARK  127  A    between atoms: _309  and  _310
REMARK  128  A    between atoms: _310  and  _311
REMARK  129  A    between atoms: _313  and  _315
REMARK  130  A    between atoms: _315  and  _316
REMARK  131  A    between atoms: _319  and  _321
REMARK  132  A    between atoms: _321  and  _322
REMARK  133  A    between atoms: _321  and  _324
REMARK  134  A    between atoms: _324  and  _325
REMARK  135  A    between atoms: _328  and  _330
REMARK  136  A    between atoms: _330  and  _331
REMARK  137  A    between atoms: _330  and  _333
REMARK  138  A    between atoms: _333  and  _334
REMARK  139  A    between atoms: _336  and  _338
REMARK  140  A    between atoms: _338  and  _339
REMARK  141  A    between atoms: _338  and  _341
REMARK  142  A    between atoms: _344  and  _346
REMARK  143  A    between atoms: _346  and  _347
REMARK  144  A    between atoms: _346  and  _349
REMARK  145  A    between atoms: _349  and  _350
REMARK  146  A    between atoms: _350  and  _351
REMARK  147  A    between atoms: _351  and  _352
REMARK  148  A    between atoms: _361  and  _363
REMARK  149  A    between atoms: _363  and  _364
REMARK  150  A    between atoms: _363  and  _366
REMARK  151  A    between atoms: _366  and  _367
REMARK  152  A    between atoms: _367  and  _368
REMARK  153  A    between atoms: _368  and  _369
REMARK  154  A    between atoms: _378  and  _380
REMARK  155  A    between atoms: _380  and  _381
REMARK  156  A    between atoms: _380  and  _383
REMARK  157  A    between atoms: _383  and  _384
REMARK  158  A    between atoms: _389  and  _390
REMARK  159  A    between atoms: _392  and  _394
REMARK  160  A    between atoms: _394  and  _395
REMARK  161  A    between atoms: _394  and  _397
REMARK  162  A    between atoms: _397  and  _398
REMARK  163  A    between atoms: _398  and  _399
REMARK  164  A    between atoms: _404  and  _406
REMARK  165  A    between atoms: _406  and  _407
REMARK  166  A    between atoms: _406  and  _409
REMARK  167  A    between atoms: _409  and  _410
REMARK  168  A    between atoms: _413  and  _415
REMARK  169  A    between atoms: _415  and  _416
REMARK  170  A    between atoms: _415  and  _418
REMARK  171  A    between atoms: _421  and  _423
REMARK  172  A    between atoms: _423  and  _424
REMARK  173  A    between atoms: _423  and  _426
REMARK  174  A    between atoms: _426  and  _427
REMARK  175  A    between atoms: _430  and  _432
REMARK  176  A    between atoms: _432  and  _433
REMARK  177  A    between atoms: _432  and  _435
REMARK  178  A    between atoms: _435  and  _436
REMARK  179  A    between atoms: _439  and  _441
REMARK  180  A    between atoms: _441  and  _442
REMARK  181  A    between atoms: _444  and  _446
REMARK  182  A    between atoms: _446  and  _447
REMARK  183  A    between atoms: _446  and  _449
REMARK  184  A    between atoms: _449  and  _450
REMARK  185  A    between atoms: _453  and  _455
REMARK  186  A    between atoms: _455  and  _456
REMARK  187  A    between atoms: _455  and  _458
REMARK  188  A    between atoms: _458  and  _459
REMARK  189  A    between atoms: _461  and  _463
REMARK  190  A    between atoms: _463  and  _464
REMARK  191  A    between atoms: _463  and  _466
REMARK  192  A    between atoms: _466  and  _467
REMARK  193  A    between atoms: _470  and  _472
REMARK  194  A    between atoms: _472  and  _473
REMARK  195  A    between atoms: _472  and  _475
REMARK  196  A    between atoms: _475  and  _476
REMARK  197  A    between atoms: _476  and  _477
REMARK  198  A    between atoms: _479  and  _481
REMARK  199  A    between atoms: _481  and  _482
REMARK  200  A    between atoms: _481  and  _484
REMARK  201  A    between atoms: _487  and  _489
REMARK  202  A    between atoms: _489  and  _490
REMARK  203  A    between atoms: _489  and  _492
REMARK  204  A    between atoms: _492  and  _493
REMARK  205  A    between atoms: _496  and  _498
REMARK  206  A    between atoms: _498  and  _499
REMARK  207  A    between atoms: _498  and  _501
REMARK  208  A    between atoms: _501  and  _502
REMARK  209  A    between atoms: _502  and  _503
REMARK  210  A    between atoms: _508  and  _510
REMARK  211  A    between atoms: _510  and  _511
REMARK  212  A    between atoms: _510  and  _513
REMARK  213  A    between atoms: _513  and  _514
REMARK  214  A    between atoms: _514  and  _515
REMARK  215  A    between atoms: _518  and  _520
REMARK  216  A    between atoms: _520  and  _521
REMARK  217  A    between atoms: _520  and  _523
REMARK  218  A    between atoms: _523  and  _524
REMARK  219  A    between atoms: _527  and  _529
REMARK  220  A    between atoms: _529  and  _530
REMARK  221  A    between atoms: _529  and  _532
REMARK  222  A    between atoms: _535  and  _537
REMARK  223  A    between atoms: _537  and  _538
REMARK  224  A    between atoms: _537  and  _540
REMARK  225  A    between atoms: _540  and  _541
REMARK  226  A    between atoms: _544  and  _546
REMARK  227  A    between atoms: _546  and  _547
REMARK  228  A    between atoms: _546  and  _549
REMARK  229  A    between atoms: _549  and  _550
REMARK  230  A    between atoms: _552  and  _554
REMARK  231  A    between atoms: _554  and  _555
REMARK  232  A    between atoms: _554  and  _557
REMARK  233  A    between atoms: _557  and  _558
REMARK  234  A    between atoms: _558  and  _559
REMARK  235  A    between atoms: _561  and  _563
REMARK  236  A    between atoms: _563  and  _564
REMARK  237  A    between atoms: _563  and  _566
REMARK  238  A    between atoms: _566  and  _567
REMARK  239  A    between atoms: _567  and  _568
REMARK  240  A    between atoms: _570  and  _572
REMARK  241  A    between atoms: _572  and  _573
REMARK  242  A    between atoms: _572  and  _575
REMARK  243  A    between atoms: _575  and  _576
REMARK  244  A    between atoms: _579  and  _581
REMARK  245  A    between atoms: _581  and  _582
REMARK  246  A    between atoms: _581  and  _584
REMARK  247  A    between atoms: _584  and  _585
REMARK  248  A    between atoms: _589  and  _590
REMARK  249  A    between atoms: _595  and  _597
REMARK  250  A    between atoms: _597  and  _598
REMARK  251  A    between atoms: _597  and  _600
REMARK  252  A    between atoms: _600  and  _601
REMARK  253  A    between atoms: _603  and  _605
REMARK  254  A    between atoms: _605  and  _606
REMARK  255  A    between atoms: _608  and  _610
REMARK  256  A    between atoms: _610  and  _611
REMARK  257  A    between atoms: _610  and  _613
REMARK  258  A    between atoms: _613  and  _614
REMARK  259  A    between atoms: _617  and  _619
REMARK  260  A    between atoms: _619  and  _620
REMARK  261  A    between atoms: _619  and  _622
REMARK  262  A    between atoms: _622  and  _623
REMARK  263  A    between atoms: _626  and  _628
REMARK  264  A    between atoms: _628  and  _629
REMARK  265  A    between atoms: _631  and  _633
REMARK  266  A    between atoms: _633  and  _634
REMARK  267  A    between atoms: _633  and  _636
REMARK  268  A    between atoms: _636  and  _637
REMARK                            x       y       z     vdW  Elec       q    Type
REMARK                         _______ _______ _______ _____ _____    ______ ____
ROOT
ATOM      1  CA  MET A   1      31.654  93.273   5.710  0.00  0.00    +0.134 C 
ENDROOT
BRANCH   1   2
ATOM      2  N   MET A   1      32.181  92.614   6.885  0.00  0.00    -0.239 NA
ATOM      3  H   MET A   1      31.648  92.666   7.776  0.00  0.00    +0.142 HD
ENDBRANCH   1   2
BRANCH   1   4
ATOM      4  C   MET A   1      31.955  94.742   5.945  0.00  0.00    +0.224 C 
ATOM      5  O   MET A   1      31.953  95.196   7.102  0.00  0.00    -0.287 OA
ENDBRANCH   1   4
BRANCH   1   6
ATOM      6  CB  MET A   1      30.200  92.968   5.696  0.00  0.00    +0.037 C 
BRANCH   6   7
ATOM      7  CG  MET A   1      29.375  93.496   4.567  0.00  0.00    +0.059 C 
BRANCH   7   8
ATOM      8  SD  MET A   1      27.668  93.093   4.982  0.00  0.00    -0.139 S 
ATOM      9  CE  MET A   1      26.941  94.677   4.635  0.00  0.00    +0.069 C 
ENDBRANCH   7   8
ENDBRANCH   6   7
ENDBRANCH   1   6
TORSDOF 5
REMARK  Name = ../refined-set-2016/1lyb/1lyb_pocket.pdb
REMARK  268 active torsions:
REMARK  status: ('A' for Active; 'I' for Inactive)
REMARK    1  A    between atoms: _1  and  _3
REMARK    2  A    between atoms: _3  and  _4
REMARK    3  A    between atoms: _3  and  _6
REMARK    4  A    between atoms: _6  and  _7
REMARK    5  A    between atoms: _7  and  _8
REMARK    6  A    between atoms: _10  and  _12
REMARK    7  A    between atoms: _12  and  _13
REMARK    8  A    between atoms: _12  and  _15
REMARK    9  A    between atoms: _15  and  _16
REMARK   10  A    between atoms: _19  and  _21
REMARK   11  A    between atoms: _21  and  _22
REMARK   12  A    between atoms: _25  and  _27
REMARK   13  A    between atoms: _27  and  _28
REMARK   14  A    between atoms: _27  and  _30
REMARK   15  A    between atoms: _30  and  _31
REMARK   16  A    between atoms: _31  and  _32
REMARK   17  A    between atoms: _37  and  _39
REMARK   18  A    between atoms: _39  and  _40
REMARK   19  A    between atoms: _39  and  _42
REMARK   20  A    between atoms: _42  and  _43
REMARK   21  A    between atoms: _48  and  _49
REMARK   22  A    between atoms: _51  and  _53
REMARK   23  A    between atoms: _53  and  _54
REMARK   24  A    between atoms: _53  and  _56
REMARK   25  A    between atoms: _59  and  _61
REMARK   26  A    between atoms: _61  and  _62
REMARK   27  A    between atoms: _61  and  _64
REMARK   28  A    between atoms: _67  and  _69
REMARK   29  A    between atoms: _69  and  _70
REMARK   30  A    between atoms: _69  and  _72
REMARK   31  A    between atoms: _72  and  _73
REMARK   32  A    between atoms: _79  and  _81
REMARK   33  A    between atoms: _81  and  _82
REMARK   34  A    between atoms: _81  and  _84
REMARK   35  A    between atoms: _84  and  _85
REMARK   36  A    between atoms: _88  and  _90
REMARK   37  A    between atoms: _90  and  _91
REMARK   38  A    between atoms: _90  and  _93
REMARK   39  A    between atoms: _93  and  _94
REMARK   40  A    between atoms: _97  and  _99
REMARK   41  A    between atoms: _99  and  _100
REMARK   42  A    between atoms: _102  and  _104
REMARK   43  A    between atoms: _104  and  _105
REMARK   44  A    between atoms: _104  and  _107
REMARK   45  A    between atoms: _107  and  _108
REMARK   46  A    between atoms: _110  and  _112
REMARK   47  A    between atoms: _112  and  _113
REMARK   48  A    between atoms: _112  and  _115
REMARK   49  A    between atoms: _115  and  _116
REMARK   50  A    between atoms: _118  and  _120
REMARK   51  A    between atoms: _120  and  _121
REMARK   52  A    between atoms: _120  and  _123
REMARK   53  A    between atoms: _123  and  _124
REMARK   54  A    between atoms: _129  and  _131
REMARK   55  A    between atoms: _131  and  _132
REMARK   56  A    between atoms: _131  and  _134
REMARK   57  A    between atoms: _134  and  _135
REMARK   58  A    between atoms: _145  and  _147
REMARK   59  A    between atoms: _147  and  _148
REMARK   60  A    between atoms: _147  and  _150
REMARK   61  A    between atoms: _150  and  _151
REMARK   62  A    between atoms: _154  and  _156
REMARK   63  A    between atoms: _156  and  _157
REMARK   64  A    between atoms: _156  and  _159
REMARK   65  A    between atoms: _159  and  _160
REMARK   66  A    between atoms: _163  and  _165
REMARK   67  A    between atoms: _165  and  _166
REMARK   68  A    between atoms: _165  and  _168
REMARK   69  A    between atoms: _168  and  _169
REMARK   70  A    between atoms: _174  and  _176
REMARK   71  A    between atoms: _176  and  _177
REMARK   72  A    between atoms: _176  and  _179
REMARK   73  A    between atoms: _179  and  _180
REMARK   74  A    between atoms: _185  and  _186
REMARK   75  A    between atoms: _188  and  _190
REMARK   76  A    between atoms: _190  and  _191
REMARK   77  A    between atoms: _193  and  _195
REMARK   78  A    between atoms: _195  and  _196
REMARK   79  A    between atoms: _195  and  _198
REMARK   80  A    between atoms: _198  and  _199
REMARK   81  A    between atoms: _201  and  _203
REMARK   82  A    between atoms: _203  and  _204
REMARK   83  A    between atoms: _206  and  _208
REMARK   84  A    between atoms: _208  and  _209
REMARK   85  A    between atoms: _208  and  _211
REMARK   86  A    between atoms: _211  and  _212
REMARK   87  A    between atoms: _214  and  _216
REMARK   88  A    between atoms: _216  and  _217
REMARK   89  A    between atoms: _216  and  _219
REMARK   90  A    between atoms: _219  and  _220
REMARK   91  A    between atoms: _223  and  _225
REMARK   92  A    between atoms: _225  and  _226
REMARK   93  A    between atoms: _225  and  _228
REMARK   94  A    between atoms: _228  and  _229
REMARK   95  A    between atoms: _232  and  _234
REMARK   96  A    between atoms: _234  and  _235
REMARK   97  A    between atoms: _234  and  _237
REMARK   98  A    between atoms: _237  and  _238
REMARK   99  A    between atoms: _244  and  _246
REMARK  100  A    between atoms: _246  and  _247
REMARK  101  A    between atoms: _250  and  _252
REMARK  102  A    between atoms: _252  and  _253
REMARK  103  A    between atoms: _256  and  _258
REMARK  104  A    between atoms: _258  and  _259
REMARK  105  A    between atoms: _258  and  _261
REMARK  106  A    between atoms: _261  and  _262
REMARK  107  A    between atoms: _262  and  _263
REMARK  108  A    between atoms: _263  and  _264
REMARK  109  A    between atoms: _264  and  _265
REMARK  110  A    between atoms: _269  and  _271
REMARK  111  A    between atoms: _271  and  _272
REMARK  112  A    between atoms: _271  and  _274
REMARK  113  A    between atoms: _274  and  _275
REMARK  114  A    between atoms: _281  and  _283
REMARK  115  A    between atoms: _283  and  _284
REMARK  116  A    between atoms: _286  and  _288
REMARK  117  A    between atoms: _288  and  _289
REMARK  118  A    between atoms: _288  and  _291
REMARK  119  A    between atoms: _291  and  _292
REMARK  120  A    between atoms: _295  and  _297
REMARK  121  A    between atoms: _297  and  _298
REMARK  122  A    between atoms: _297  and  _300
REMARK  123  A    between atoms: _300  and  _301
REMARK  124  A    between atoms: _304  and  _306
REMARK  125  A    between atoms: _306  and  _307
REMARK  126  A    between atoms: _306  and  _309
REMARK  127  A    between atoms: _309  and  _310
REMARK  128  A    between atoms: _310  and  _311
REMARK  129  A    between atoms: _313  and  _315
REMARK  130  A    between atoms: _315  and  _316
REMARK  131  A    between atoms: _319  and  _321
REMARK  132  A    between atoms: _321  and  _322
REMARK  133  A    between atoms: _321  and  _324
REMARK  134  A    between atoms: _324  and  _325
REMARK  135  A    between atoms: _328  and  _330
REMARK  136  A    between atoms: _330  and  _331
REMARK  137  A    between atoms: _330  and  _333
REMARK  138  A    between atoms: _333  and  _334
REMARK  139  A    between atoms: _336  and  _338
REMARK  140  A    between atoms: _338  and  _339
REMARK  141  A    between atoms: _338  and  _341
REMARK  142  A    between atoms: _344  and  _346
REMARK  143  A    between atoms: _346  and  _347
REMARK  144  A    between atoms: _346  and  _349
REMARK  145  A    between atoms: _349  and  _350
REMARK  146  A    between atoms: _350  and  _351
REMARK  147  A    between atoms: _351  and  _352
REMARK  148  A    between atoms: _361  and  _363
REMARK  149  A    between atoms: _363  and  _364
REMARK  150  A    between atoms: _363  and  _366
REMARK  151  A    between atoms: _366  and  _367
REMARK  152  A    between atoms: _367  and  _368
REMARK  153  A    between atoms: _368  and  _369
REMARK  154  A    between atoms: _378  and  _380
REMARK  155  A    between atoms: _380  and  _381
REMARK  156  A    between atoms: _380  and  _383
REMARK  157  A    between atoms: _383  and  _384
REMARK  158  A    between atoms: _389  and  _390
REMARK  159  A    between atoms: _392  and  _394
REMARK  160  A    between atoms: _394  and  _395
REMARK  161  A    between atoms: _394  and  _397
REMARK  162  A    between atoms: _397  and  _398
REMARK  163  A    between atoms: _398  and  _399
REMARK  164  A    between atoms: _404  and  _406
REMARK  165  A    between atoms: _406  and  _407
REMARK  166  A    between atoms: _406  and  _409
REMARK  167  A    between atoms: _409  and  _410
REMARK  168  A    between atoms: _413  and  _415
REMARK  169  A    between atoms: _415  and  _416
REMARK  170  A    between atoms: _415  and  _418
REMARK  171  A    between atoms: _421  and  _423
REMARK  172  A    between atoms: _423  and  _424
REMARK  173  A    between atoms: _423  and  _426
REMARK  174  A    between atoms: _426  and  _427
REMARK  175  A    between atoms: _430  and  _432
REMARK  176  A    between atoms: _432  and  _433
REMARK  177  A    between atoms: _432  and  _435
REMARK  178  A    between atoms: _435  and  _436
REMARK  179  A    between atoms: _439  and  _441
REMARK  180  A    between atoms: _441  and  _442
REMARK  181  A    between atoms: _444  and  _446
REMARK  182  A    between atoms: _446  and  _447
REMARK  183  A    between atoms: _446  and  _449
REMARK  184  A    between atoms: _449  and  _450
REMARK  185  A    between atoms: _453  and  _455
REMARK  186  A    between atoms: _455  and  _456
REMARK  187  A    between atoms: _455  and  _458
REMARK  188  A    between atoms: _458  and  _459
REMARK  189  A    between atoms: _461  and  _463
REMARK  190  A    between atoms: _463  and  _464
REMARK  191  A    between atoms: _463  and  _466
REMARK  192  A    between atoms: _466  and  _467
REMARK  193  A    between atoms: _470  and  _472
REMARK  194  A    between atoms: _472  and  _473
REMARK  195  A    between atoms: _472  and  _475
REMARK  196  A    between atoms: _475  and  _476
REMARK  197  A    between atoms: _476  and  _477
REMARK  198  A    between atoms: _479  and  _481
REMARK  199  A    between atoms: _481  and  _482
REMARK  200  A    between atoms: _481  and  _484
REMARK  201  A    between atoms: _487  and  _489
REMARK  202  A    between atoms: _489  and  _490
REMARK  203  A    between atoms: _489  and  _492
REMARK  204  A    between atoms: _492  and  _493
REMARK  205  A    between atoms: _496  and  _498
REMARK  206  A    between atoms: _498  and  _499
REMARK  207  A    between atoms: _498  and  _501
REMARK  208  A    between atoms: _501  and  _502
REMARK  209  A    between atoms: _502  and  _503
REMARK  210  A    between atoms: _508  and  _510
REMARK  211  A    between atoms: _510  and  _511
REMARK  212  A    between atoms: _510  and  _513
REMARK  213  A    between atoms: _513  and  _514
REMARK  214  A    between atoms: _514  and  _515
REMARK  215  A    between atoms: _518  and  _520
REMARK  216  A    between atoms: _520  and  _521
REMARK  217  A    between atoms: _520  and  _523
REMARK  218  A    between atoms: _523  and  _524
REMARK  219  A    between atoms: _527  and  _529
REMARK  220  A    between atoms: _529  and  _530
REMARK  221  A    between atoms: _529  and  _532
REMARK  222  A    between atoms: _535  and  _537
REMARK  223  A    between atoms: _537  and  _538
REMARK  224  A    between atoms: _537  and  _540
REMARK  225  A    between atoms: _540  and  _541
REMARK  226  A    between atoms: _544  and  _546
REMARK  227  A    between atoms: _546  and  _547
REMARK  228  A    between atoms: _546  and  _549
REMARK  229  A    between atoms: _549  and  _550
REMARK  230  A    between atoms: _552  and  _554
REMARK  231  A    between atoms: _554  and  _555
REMARK  232  A    between atoms: _554  and  _557
REMARK  233  A    between atoms: _557  and  _558
REMARK  234  A    between atoms: _558  and  _559
REMARK  235  A    between atoms: _561  and  _563
REMARK  236  A    between atoms: _563  and  _564
REMARK  237  A    between atoms: _563  and  _566
REMARK  238  A    between atoms: _566  and  _567
REMARK  239  A    between atoms: _567  and  _568
REMARK  240  A    between atoms: _570  and  _572
REMARK  241  A    between atoms: _572  and  _573
REMARK  242  A    between atoms: _572  and  _575
REMARK  243  A    between atoms: _575  and  _576
REMARK  244  A    between atoms: _579  and  _581
REMARK  245  A    between atoms: _581  and  _582
REMARK  246  A    between atoms: _581  and  _584
REMARK  247  A    between atoms: _584  and  _585
REMARK  248  A    between atoms: _589  and  _590
REMARK  249  A    between atoms: _595  and  _597
REMARK  250  A    between atoms: _597  and  _598
REMARK  251  A    between atoms: _597  and  _600
REMARK  252  A    between atoms: _600  and  _601
REMARK  253  A    between atoms: _603  and  _605
REMARK  254  A    between atoms: _605  and  _606
REMARK  255  A    between atoms: _608  and  _610
REMARK  256  A    between atoms: _610  and  _611
REMARK  257  A    between atoms: _610  and  _613
REMARK  258  A    between atoms: _613  and  _614
REMARK  259  A    between atoms: _617  and  _619
REMARK  260  A    between atoms: _619  and  _620
REMARK  261  A    between atoms: _619  and  _622
REMARK  262  A    between atoms: _622  and  _623
REMARK  263  A    between atoms: _626  and  _628
REMARK  264  A    between atoms: _628  and  _629
REMARK  265  A    between atoms: _631  and  _633
REMARK  266  A    between atoms: _633  and  _634
REMARK  267  A    between atoms: _633  and  _636
REMARK  268  A    between atoms: _636  and  _637
REMARK                            x       y       z     vdW  Elec       q    Type
REMARK                         _______ _______ _______ _____ _____    ______ ____
ROOT
ATOM      1  C   ASP A   2      28.461 103.623   7.117  0.00  0.00    +0.241 C 
ATOM      2  N   ILE A   3      28.220 103.637   8.407  0.00  0.00    -0.297 N 
ATOM      3  H   ILE A   3      28.928 103.263   9.071  0.00  0.00    +0.150 HD
ATOM      4  O   ASP A   2      27.593 103.910   6.299  0.00  0.00    -0.273 OA
ENDROOT
BRANCH   1   5
ATOM      5  CA  ASP A   2      29.807 103.173   6.651  0.00  0.00    +0.160 C 
BRANCH   5   8
ATOM      6  C   MET A   1      29.845 100.711   6.489  0.00  0.00    +0.238 C 
ATOM      7  O   MET A   1      30.241 100.592   7.648  0.00  0.00    -0.274 OA
ATOM      8  N   ASP A   2      29.648 101.914   5.932  0.00  0.00    -0.297 N 
ATOM      9  H   ASP A   2      29.366 101.952   4.932  0.00  0.00    +0.150 HD
BRANCH   6  10
ATOM     10  CA  MET A   1      29.647  99.450   5.666  0.00  0.00    +0.146 C 
BRANCH  10  11
ATOM     11  N   MET A   1      30.796  98.589   5.896  0.00  0.00    -0.238 NA
ATOM     12  H   MET A   1      31.247  98.589   6.833  0.00  0.00    +0.142 HD
ENDBRANCH  10  11
BRANCH  10  13
ATOM     13  CB  MET A   1      28.382  98.769   6.105  0.00  0.00    +0.038 C 
BRANCH  13  14
ATOM     14  CG  MET A   1      27.167  99.599   5.766  0.00  0.00    +0.060 C 
BRANCH  14  15
ATOM     15  SD  MET A   1      25.684  98.728   6.288  0.00  0.00    -0.139 S 
ATOM     16  CE  MET A   1      24.758  98.672   4.790  0.00  0.00    +0.069 C 
ENDBRANCH  14  15
ENDBRANCH  13  14
ENDBRANCH  10  13
ENDBRANCH   6  10
ENDBRANCH   5   8
BRANCH   5  17
ATOM     17  CB  ASP A   2      30.292 104.341   5.825  0.00  0.00    +0.143 C 
BRANCH  17  18
ATOM     18  CG  ASP A   2      31.754 104.311   5.453  0.00  0.00    +0.367 C 
ATOM     19  OD2 ASP A   2      32.607 104.050   6.298  0.00  0.00    -0.246 OA
ATOM     20  OD1 ASP A   2      32.030 104.598   4.297  0.00  0.00    -0.246 OA
ENDBRANCH  17  18
ENDBRANCH   5  17
ENDBRANCH   1   5
BRANCH   2  21
ATOM     21  CA  ILE A   3      26.963 104.175   8.910  0.00  0.00    +0.149 C 
BRANCH  21  22
ATOM     22  C   ILE A   3      27.243 105.656   9.175  0.00  0.00    +0.244 C 
ATOM     23  O   ILE A   3      28.167 105.964   9.950  0.00  0.00    -0.273 OA
ATOM     24  N   PRO A   4      26.551 106.609   8.548  0.00  0.00    -0.273 N 
ATOM     25  CA  PRO A   4      26.948 107.992   8.512  0.00  0.00    +0.140 C 
ATOM     26  CB  PRO A   4      26.234 108.523   7.308  0.00  0.00    +0.030 C 
ATOM     27  CG  PRO A   4      24.935 107.815   7.352  0.00  0.00    +0.024 C 
ATOM     28  CD  PRO A   4      25.336 106.422   7.771  0.00  0.00    +0.094 C 
BRANCH  25  29
ATOM     29  C   PRO A   4      26.592 108.671   9.815  0.00  0.00    +0.227 C 
ATOM     30  O   PRO A   4      25.776 108.139  10.585  0.00  0.00    -0.286 OA
ENDBRANCH  25  29
ENDBRANCH  21  22
BRANCH  21  31
ATOM     31  CB  ILE A   3      26.615 103.378  10.166  0.00  0.00    +0.027 C 
ATOM     32  CG2 ILE A   3      25.503 104.034  10.953  0.00  0.00    +0.002 C 
BRANCH  31  33
ATOM     33  CG1 ILE A   3      26.253 101.974   9.712  0.00  0.00    +0.002 C 
ATOM     34  CD1 ILE A   3      26.307 100.997  10.889  0.00  0.00    +0.000 C 
ENDBRANCH  31  33
ENDBRANCH  21  31
ENDBRANCH   2  21
TORSDOF 14
REMARK  Name = ../refined-set-2016/1lyb/1lyb_pocket.pdb
REMARK  268 active torsions:
REMARK  status: ('A' for Active; 'I' for Inactive)
REMARK    1  A    between atoms: _1  and  _3
REMARK    2  A    between atoms: _3  and  _4
REMARK    3  A    between atoms: _3  and  _6
REMARK    4  A    between atoms: _6  and  _7
REMARK    5  A    between atoms: _7  and  _8
REMARK    6  A    between atoms: _10  and  _12
REMARK    7  A    between atoms: _12  and  _13
REMARK    8  A    between atoms: _12  and  _15
REMARK    9  A    between atoms: _15  and  _16
REMARK   10  A    between atoms: _19  and  _21
REMARK   11  A    between atoms: _21  and  _22
REMARK   12  A    between atoms: _25  and  _27
REMARK   13  A    between atoms: _27  and  _28
REMARK   14  A    between atoms: _27  and  _30
REMARK   15  A    between atoms: _30  and  _31
REMARK   16  A    between atoms: _31  and  _32
REMARK   17  A    between atoms: _37  and  _39
REMARK   18  A    between atoms: _39  and  _40
REMARK   19  A    between atoms: _39  and  _42
REMARK   20  A    between atoms: _42  and  _43
REMARK   21  A    between atoms: _48  and  _49
REMARK   22  A    between atoms: _51  and  _53
REMARK   23  A    between atoms: _53  and  _54
REMARK   24  A    between atoms: _53  and  _56
REMARK   25  A    between atoms: _59  and  _61
REMARK   26  A    between atoms: _61  and  _62
REMARK   27  A    between atoms: _61  and  _64
REMARK   28  A    between atoms: _67  and  _69
REMARK   29  A    between atoms: _69  and  _70
REMARK   30  A    between atoms: _69  and  _72
REMARK   31  A    between atoms: _72  and  _73
REMARK   32  A    between atoms: _79  and  _81
REMARK   33  A    between atoms: _81  and  _82
REMARK   34  A    between atoms: _81  and  _84
REMARK   35  A    between atoms: _84  and  _85
REMARK   36  A    between atoms: _88  and  _90
REMARK   37  A    between atoms: _90  and  _91
REMARK   38  A    between atoms: _90  and  _93
REMARK   39  A    between atoms: _93  and  _94
REMARK   40  A    between atoms: _97  and  _99
REMARK   41  A    between atoms: _99  and  _100
REMARK   42  A    between atoms: _102  and  _104
REMARK   43  A    between atoms: _104  and  _105
REMARK   44  A    between atoms: _104  and  _107
REMARK   45  A    between atoms: _107  and  _108
REMARK   46  A    between atoms: _110  and  _112
REMARK   47  A    between atoms: _112  and  _113
REMARK   48  A    between atoms: _112  and  _115
REMARK   49  A    between atoms: _115  and  _116
REMARK   50  A    between atoms: _118  and  _120
REMARK   51  A    between atoms: _120  and  _121
REMARK   52  A    between atoms: _120  and  _123
REMARK   53  A    between atoms: _123  and  _124
REMARK   54  A    between atoms: _129  and  _131
REMARK   55  A    between atoms: _131  and  _132
REMARK   56  A    between atoms: _131  and  _134
REMARK   57  A    between atoms: _134  and  _135
REMARK   58  A    between atoms: _145  and  _147
REMARK   59  A    between atoms: _147  and  _148
REMARK   60  A    between atoms: _147  and  _150
REMARK   61  A    between atoms: _150  and  _151
REMARK   62  A    between atoms: _154  and  _156
REMARK   63  A    between atoms: _156  and  _157
REMARK   64  A    between atoms: _156  and  _159
REMARK   65  A    between atoms: _159  and  _160
REMARK   66  A    between atoms: _163  and  _165
REMARK   67  A    between atoms: _165  and  _166
REMARK   68  A    between atoms: _165  and  _168
REMARK   69  A    between atoms: _168  and  _169
REMARK   70  A    between atoms: _174  and  _176
REMARK   71  A    between atoms: _176  and  _177
REMARK   72  A    between atoms: _176  and  _179
REMARK   73  A    between atoms: _179  and  _180
REMARK   74  A    between atoms: _185  and  _186
REMARK   75  A    between atoms: _188  and  _190
REMARK   76  A    between atoms: _190  and  _191
REMARK   77  A    between atoms: _193  and  _195
REMARK   78  A    between atoms: _195  and  _196
REMARK   79  A    between atoms: _195  and  _198
REMARK   80  A    between atoms: _198  and  _199
REMARK   81  A    between atoms: _201  and  _203
REMARK   82  A    between atoms: _203  and  _204
REMARK   83  A    between atoms: _206  and  _208
REMARK   84  A    between atoms: _208  and  _209
REMARK   85  A    between atoms: _208  and  _211
REMARK   86  A    between atoms: _211  and  _212
REMARK   87  A    between atoms: _214  and  _216
REMARK   88  A    between atoms: _216  and  _217
REMARK   89  A    between atoms: _216  and  _219
REMARK   90  A    between atoms: _219  and  _220
REMARK   91  A    between atoms: _223  and  _225
REMARK   92  A    between atoms: _225  and  _226
REMARK   93  A    between atoms: _225  and  _228
REMARK   94  A    between atoms: _228  and  _229
REMARK   95  A    between atoms: _232  and  _234
REMARK   96  A    between atoms: _234  and  _235
REMARK   97  A    between atoms: _234  and  _237
REMARK   98  A    between atoms: _237  and  _238
REMARK   99  A    between atoms: _244  and  _246
REMARK  100  A    between atoms: _246  and  _247
REMARK  101  A    between atoms: _250  and  _252
REMARK  102  A    between atoms: _252  and  _253
REMARK  103  A    between atoms: _256  and  _258
REMARK  104  A    between atoms: _258  and  _259
REMARK  105  A    between atoms: _258  and  _261
REMARK  106  A    between atoms: _261  and  _262
REMARK  107  A    between atoms: _262  and  _263
REMARK  108  A    between atoms: _263  and  _264
REMARK  109  A    between atoms: _264  and  _265
REMARK  110  A    between atoms: _269  and  _271
REMARK  111  A    between atoms: _271  and  _272
REMARK  112  A    between atoms: _271  and  _274
REMARK  113  A    between atoms: _274  and  _275
REMARK  114  A    between atoms: _281  and  _283
REMARK  115  A    between atoms: _283  and  _284
REMARK  116  A    between atoms: _286  and  _288
REMARK  117  A    between atoms: _288  and  _289
REMARK  118  A    between atoms: _288  and  _291
REMARK  119  A    between atoms: _291  and  _292
REMARK  120  A    between atoms: _295  and  _297
REMARK  121  A    between atoms: _297  and  _298
REMARK  122  A    between atoms: _297  and  _300
REMARK  123  A    between atoms: _300  and  _301
REMARK  124  A    between atoms: _304  and  _306
REMARK  125  A    between atoms: _306  and  _307
REMARK  126  A    between atoms: _306  and  _309
REMARK  127  A    between atoms: _309  and  _310
REMARK  128  A    between atoms: _310  and  _311
REMARK  129  A    between atoms: _313  and  _315
REMARK  130  A    between atoms: _315  and  _316
REMARK  131  A    between atoms: _319  and  _321
REMARK  132  A    between atoms: _321  and  _322
REMARK  133  A    between atoms: _321  and  _324
REMARK  134  A    between atoms: _324  and  _325
REMARK  135  A    between atoms: _328  and  _330
REMARK  136  A    between atoms: _330  and  _331
REMARK  137  A    between atoms: _330  and  _333
REMARK  138  A    between atoms: _333  and  _334
REMARK  139  A    between atoms: _336  and  _338
REMARK  140  A    between atoms: _338  and  _339
REMARK  141  A    between atoms: _338  and  _341
REMARK  142  A    between atoms: _344  and  _346
REMARK  143  A    between atoms: _346  and  _347
REMARK  144  A    between atoms: _346  and  _349
REMARK  145  A    between atoms: _349  and  _350
REMARK  146  A    between atoms: _350  and  _351
REMARK  147  A    between atoms: _351  and  _352
REMARK  148  A    between atoms: _361  and  _363
REMARK  149  A    between atoms: _363  and  _364
REMARK  150  A    between atoms: _363  and  _366
REMARK  151  A    between atoms: _366  and  _367
REMARK  152  A    between atoms: _367  and  _368
REMARK  153  A    between atoms: _368  and  _369
REMARK  154  A    between atoms: _378  and  _380
REMARK  155  A    between atoms: _380  and  _381
REMARK  156  A    between atoms: _380  and  _383
REMARK  157  A    between atoms: _383  and  _384
REMARK  158  A    between atoms: _389  and  _390
REMARK  159  A    between atoms: _392  and  _394
REMARK  160  A    between atoms: _394  and  _395
REMARK  161  A    between atoms: _394  and  _397
REMARK  162  A    between atoms: _397  and  _398
REMARK  163  A    between atoms: _398  and  _399
REMARK  164  A    between atoms: _404  and  _406
REMARK  165  A    between atoms: _406  and  _407
REMARK  166  A    between atoms: _406  and  _409
REMARK  167  A    between atoms: _409  and  _410
REMARK  168  A    between atoms: _413  and  _415
REMARK  169  A    between atoms: _415  and  _416
REMARK  170  A    between atoms: _415  and  _418
REMARK  171  A    between atoms: _421  and  _423
REMARK  172  A    between atoms: _423  and  _424
REMARK  173  A    between atoms: _423  and  _426
REMARK  174  A    between atoms: _426  and  _427
REMARK  175  A    between atoms: _430  and  _432
REMARK  176  A    between atoms: _432  and  _433
REMARK  177  A    between atoms: _432  and  _435
REMARK  178  A    between atoms: _435  and  _436
REMARK  179  A    between atoms: _439  and  _441
REMARK  180  A    between atoms: _441  and  _442
REMARK  181  A    between atoms: _444  and  _446
REMARK  182  A    between atoms: _446  and  _447
REMARK  183  A    between atoms: _446  and  _449
REMARK  184  A    between atoms: _449  and  _450
REMARK  185  A    between atoms: _453  and  _455
REMARK  186  A    between atoms: _455  and  _456
REMARK  187  A    between atoms: _455  and  _458
REMARK  188  A    between atoms: _458  and  _459
REMARK  189  A    between atoms: _461  and  _463
REMARK  190  A    between atoms: _463  and  _464
REMARK  191  A    between atoms: _463  and  _466
REMARK  192  A    between atoms: _466  and  _467
REMARK  193  A    between atoms: _470  and  _472
REMARK  194  A    between atoms: _472  and  _473
REMARK  195  A    between atoms: _472  and  _475
REMARK  196  A    between atoms: _475  and  _476
REMARK  197  A    between atoms: _476  and  _477
REMARK  198  A    between atoms: _479  and  _481
REMARK  199  A    between atoms: _481  and  _482
REMARK  200  A    between atoms: _481  and  _484
REMARK  201  A    between atoms: _487  and  _489
REMARK  202  A    between atoms: _489  and  _490
REMARK  203  A    between atoms: _489  and  _492
REMARK  204  A    between atoms: _492  and  _493
REMARK  205  A    between atoms: _496  and  _498
REMARK  206  A    between atoms: _498  and  _499
REMARK  207  A    between atoms: _498  and  _501
REMARK  208  A    between atoms: _501  and  _502
REMARK  209  A    between atoms: _502  and  _503
REMARK  210  A    between atoms: _508  and  _510
REMARK  211  A    between atoms: _510  and  _511
REMARK  212  A    between atoms: _510  and  _513
REMARK  213  A    between atoms: _513  and  _514
REMARK  214  A    between atoms: _514  and  _515
REMARK  215  A    between atoms: _518  and  _520
REMARK  216  A    between atoms: _520  and  _521
REMARK  217  A    between atoms: _520  and  _523
REMARK  218  A    between atoms: _523  and  _524
REMARK  219  A    between atoms: _527  and  _529
REMARK  220  A    between atoms: _529  and  _530
REMARK  221  A    between atoms: _529  and  _532
REMARK  222  A    between atoms: _535  and  _537
REMARK  223  A    between atoms: _537  and  _538
REMARK  224  A    between atoms: _537  and  _540
REMARK  225  A    between atoms: _540  and  _541
REMARK  226  A    between atoms: _544  and  _546
REMARK  227  A    between atoms: _546  and  _547
REMARK  228  A    between atoms: _546  and  _549
REMARK  229  A    between atoms: _549  and  _550
REMARK  230  A    between atoms: _552  and  _554
REMARK  231  A    between atoms: _554  and  _555
REMARK  232  A    between atoms: _554  and  _557
REMARK  233  A    between atoms: _557  and  _558
REMARK  234  A    between atoms: _558  and  _559
REMARK  235  A    between atoms: _561  and  _563
REMARK  236  A    between atoms: _563  and  _564
REMARK  237  A    between atoms: _563  and  _566
REMARK  238  A    between atoms: _566  and  _567
REMARK  239  A    between atoms: _567  and  _568
REMARK  240  A    between atoms: _570  and  _572
REMARK  241  A    between atoms: _572  and  _573
REMARK  242  A    between atoms: _572  and  _575
REMARK  243  A    between atoms: _575  and  _576
REMARK  244  A    between atoms: _579  and  _581
REMARK  245  A    between atoms: _581  and  _582
REMARK  246  A    between atoms: _581  and  _584
REMARK  247  A    between atoms: _584  and  _585
REMARK  248  A    between atoms: _589  and  _590
REMARK  249  A    between atoms: _595  and  _597
REMARK  250  A    between atoms: _597  and  _598
REMARK  251  A    between atoms: _597  and  _600
REMARK  252  A    between atoms: _600  and  _601
REMARK  253  A    between atoms: _603  and  _605
REMARK  254  A    between atoms: _605  and  _606
REMARK  255  A    between atoms: _608  and  _610
REMARK  256  A    between atoms: _610  and  _611
REMARK  257  A    between atoms: _610  and  _613
REMARK  258  A    between atoms: _613  and  _614
REMARK  259  A    between atoms: _617  and  _619
REMARK  260  A    between atoms: _619  and  _620
REMARK  261  A    between atoms: _619  and  _622
REMARK  262  A    between atoms: _622  and  _623
REMARK  263  A    between atoms: _626  and  _628
REMARK  264  A    between atoms: _628  and  _629
REMARK  265  A    between atoms: _631  and  _633
REMARK  266  A    between atoms: _633  and  _634
REMARK  267  A    between atoms: _633  and  _636
REMARK  268  A    between atoms: _636  and  _637
REMARK                            x       y       z     vdW  Elec       q    Type
REMARK                         _______ _______ _______ _____ _____    ______ ____
ROOT
ATOM      1  C   SER A   1      25.869 107.367  14.582  0.00  0.00    +0.241 C 
ATOM      2  O   SER A   1      26.583 107.155  15.560  0.00  0.00    -0.274 OA
ATOM      3  N   GLY A   2      26.255 107.221  13.326  0.00  0.00    -0.296 N 
ATOM      4  H   GLY A   2      25.652 107.565  12.552  0.00  0.00    +0.150 HD
ENDROOT
BRANCH   1   5
ATOM      5  CA  SER A   1      24.454 107.877  14.737  0.00  0.00    +0.174 C 
BRANCH   5   6
ATOM      6  N   SER A   1      24.275 109.080  13.940  0.00  0.00    -0.236 NA
ATOM      7  H   SER A   1      23.683 109.055  13.085  0.00  0.00    +0.142 HD
ENDBRANCH   5   6
BRANCH   5   8
ATOM      8  CB  SER A   1      23.515 106.765  14.306  0.00  0.00    +0.163 C 
BRANCH   8   9
ATOM      9  OG  SER A   1      22.164 107.177  14.483  0.00  0.00    -0.380 OA
ATOM     10  H   SER A   1      21.558 106.447  14.200  0.00  0.00    +0.211 HD
ENDBRANCH   8   9
ENDBRANCH   5   8
ENDBRANCH   1   5
BRANCH   3  11
ATOM     11  CA  GLY A   2      27.506 106.588  13.034  0.00  0.00    +0.163 C 
BRANCH  11  12
ATOM     12  C   GLY A   2      28.639 107.562  13.030  0.00  0.00    +0.229 C 
ATOM     13  O   GLY A   2      28.403 108.777  13.082  0.00  0.00    -0.286 OA
ENDBRANCH  11  12
ENDBRANCH   3  11
TORSDOF 6
REMARK  Name = ../refined-set-2016/1lyb/1lyb_pocket.pdb
REMARK  268 active torsions:
REMARK  status: ('A' for Active; 'I' for Inactive)
REMARK    1  A    between atoms: _1  and  _3
REMARK    2  A    between atoms: _3  and  _4
REMARK    3  A    between atoms: _3  and  _6
REMARK    4  A    between atoms: _6  and  _7
REMARK    5  A    between atoms: _7  and  _8
REMARK    6  A    between atoms: _10  and  _12
REMARK    7  A    between atoms: _12  and  _13
REMARK    8  A    between atoms: _12  and  _15
REMARK    9  A    between atoms: _15  and  _16
REMARK   10  A    between atoms: _19  and  _21
REMARK   11  A    between atoms: _21  and  _22
REMARK   12  A    between atoms: _25  and  _27
REMARK   13  A    between atoms: _27  and  _28
REMARK   14  A    between atoms: _27  and  _30
REMARK   15  A    between atoms: _30  and  _31
REMARK   16  A    between atoms: _31  and  _32
REMARK   17  A    between atoms: _37  and  _39
REMARK   18  A    between atoms: _39  and  _40
REMARK   19  A    between atoms: _39  and  _42
REMARK   20  A    between atoms: _42  and  _43
REMARK   21  A    between atoms: _48  and  _49
REMARK   22  A    between atoms: _51  and  _53
REMARK   23  A    between atoms: _53  and  _54
REMARK   24  A    between atoms: _53  and  _56
REMARK   25  A    between atoms: _59  and  _61
REMARK   26  A    between atoms: _61  and  _62
REMARK   27  A    between atoms: _61  and  _64
REMARK   28  A    between atoms: _67  and  _69
REMARK   29  A    between atoms: _69  and  _70
REMARK   30  A    between atoms: _69  and  _72
REMARK   31  A    between atoms: _72  and  _73
REMARK   32  A    between atoms: _79  and  _81
REMARK   33  A    between atoms: _81  and  _82
REMARK   34  A    between atoms: _81  and  _84
REMARK   35  A    between atoms: _84  and  _85
REMARK   36  A    between atoms: _88  and  _90
REMARK   37  A    between atoms: _90  and  _91
REMARK   38  A    between atoms: _90  and  _93
REMARK   39  A    between atoms: _93  and  _94
REMARK   40  A    between atoms: _97  and  _99
REMARK   41  A    between atoms: _99  and  _100
REMARK   42  A    between atoms: _102  and  _104
REMARK   43  A    between atoms: _104  and  _105
REMARK   44  A    between atoms: _104  and  _107
REMARK   45  A    between atoms: _107  and  _108
REMARK   46  A    between atoms: _110  and  _112
REMARK   47  A    between atoms: _112  and  _113
REMARK   48  A    between atoms: _112  and  _115
REMARK   49  A    between atoms: _115  and  _116
REMARK   50  A    between atoms: _118  and  _120
REMARK   51  A    between atoms: _120  and  _121
REMARK   52  A    between atoms: _120  and  _123
REMARK   53  A    between atoms: _123  and  _124
REMARK   54  A    between atoms: _129  and  _131
REMARK   55  A    between atoms: _131  and  _132
REMARK   56  A    between atoms: _131  and  _134
REMARK   57  A    between atoms: _134  and  _135
REMARK   58  A    between atoms: _145  and  _147
REMARK   59  A    between atoms: _147  and  _148
REMARK   60  A    between atoms: _147  and  _150
REMARK   61  A    between atoms: _150  and  _151
REMARK   62  A    between atoms: _154  and  _156
REMARK   63  A    between atoms: _156  and  _157
REMARK   64  A    between atoms: _156  and  _159
REMARK   65  A    between atoms: _159  and  _160
REMARK   66  A    between atoms: _163  and  _165
REMARK   67  A    between atoms: _165  and  _166
REMARK   68  A    between atoms: _165  and  _168
REMARK   69  A    between atoms: _168  and  _169
REMARK   70  A    between atoms: _174  and  _176
REMARK   71  A    between atoms: _176  and  _177
REMARK   72  A    between atoms: _176  and  _179
REMARK   73  A    between atoms: _179  and  _180
REMARK   74  A    between atoms: _185  and  _186
REMARK   75  A    between atoms: _188  and  _190
REMARK   76  A    between atoms: _190  and  _191
REMARK   77  A    between atoms: _193  and  _195
REMARK   78  A    between atoms: _195  and  _196
REMARK   79  A    between atoms: _195  and  _198
REMARK   80  A    between atoms: _198  and  _199
REMARK   81  A    between atoms: _201  and  _203
REMARK   82  A    between atoms: _203  and  _204
REMARK   83  A    between atoms: _206  and  _208
REMARK   84  A    between atoms: _208  and  _209
REMARK   85  A    between atoms: _208  and  _211
REMARK   86  A    between atoms: _211  and  _212
REMARK   87  A    between atoms: _214  and  _216
REMARK   88  A    between atoms: _216  and  _217
REMARK   89  A    between atoms: _216  and  _219
REMARK   90  A    between atoms: _219  and  _220
REMARK   91  A    between atoms: _223  and  _225
REMARK   92  A    between atoms: _225  and  _226
REMARK   93  A    between atoms: _225  and  _228
REMARK   94  A    between atoms: _228  and  _229
REMARK   95  A    between atoms: _232  and  _234
REMARK   96  A    between atoms: _234  and  _235
REMARK   97  A    between atoms: _234  and  _237
REMARK   98  A    between atoms: _237  and  _238
REMARK   99  A    between atoms: _244  and  _246
REMARK  100  A    between atoms: _246  and  _247
REMARK  101  A    between atoms: _250  and  _252
REMARK  102  A    between atoms: _252  and  _253
REMARK  103  A    between atoms: _256  and  _258
REMARK  104  A    between atoms: _258  and  _259
REMARK  105  A    between atoms: _258  and  _261
REMARK  106  A    between atoms: _261  and  _262
REMARK  107  A    between atoms: _262  and  _263
REMARK  108  A    between atoms: _263  and  _264
REMARK  109  A    between atoms: _264  and  _265
REMARK  110  A    between atoms: _269  and  _271
REMARK  111  A    between atoms: _271  and  _272
REMARK  112  A    between atoms: _271  and  _274
REMARK  113  A    between atoms: _274  and  _275
REMARK  114  A    between atoms: _281  and  _283
REMARK  115  A    between atoms: _283  and  _284
REMARK  116  A    between atoms: _286  and  _288
REMARK  117  A    between atoms: _288  and  _289
REMARK  118  A    between atoms: _288  and  _291
REMARK  119  A    between atoms: _291  and  _292
REMARK  120  A    between atoms: _295  and  _297
REMARK  121  A    between atoms: _297  and  _298
REMARK  122  A    between atoms: _297  and  _300
REMARK  123  A    between atoms: _300  and  _301
REMARK  124  A    between atoms: _304  and  _306
REMARK  125  A    between atoms: _306  and  _307
REMARK  126  A    between atoms: _306  and  _309
REMARK  127  A    between atoms: _309  and  _310
REMARK  128  A    between atoms: _310  and  _311
REMARK  129  A    between atoms: _313  and  _315
REMARK  130  A    between atoms: _315  and  _316
REMARK  131  A    between atoms: _319  and  _321
REMARK  132  A    between atoms: _321  and  _322
REMARK  133  A    between atoms: _321  and  _324
REMARK  134  A    between atoms: _324  and  _325
REMARK  135  A    between atoms: _328  and  _330
REMARK  136  A    between atoms: _330  and  _331
REMARK  137  A    between atoms: _330  and  _333
REMARK  138  A    between atoms: _333  and  _334
REMARK  139  A    between atoms: _336  and  _338
REMARK  140  A    between atoms: _338  and  _339
REMARK  141  A    between atoms: _338  and  _341
REMARK  142  A    between atoms: _344  and  _346
REMARK  143  A    between atoms: _346  and  _347
REMARK  144  A    between atoms: _346  and  _349
REMARK  145  A    between atoms: _349  and  _350
REMARK  146  A    between atoms: _350  and  _351
REMARK  147  A    between atoms: _351  and  _352
REMARK  148  A    between atoms: _361  and  _363
REMARK  149  A    between atoms: _363  and  _364
REMARK  150  A    between atoms: _363  and  _366
REMARK  151  A    between atoms: _366  and  _367
REMARK  152  A    between atoms: _367  and  _368
REMARK  153  A    between atoms: _368  and  _369
REMARK  154  A    between atoms: _378  and  _380
REMARK  155  A    between atoms: _380  and  _381
REMARK  156  A    between atoms: _380  and  _383
REMARK  157  A    between atoms: _383  and  _384
REMARK  158  A    between atoms: _389  and  _390
REMARK  159  A    between atoms: _392  and  _394
REMARK  160  A    between atoms: _394  and  _395
REMARK  161  A    between atoms: _394  and  _397
REMARK  162  A    between atoms: _397  and  _398
REMARK  163  A    between atoms: _398  and  _399
REMARK  164  A    between atoms: _404  and  _406
REMARK  165  A    between atoms: _406  and  _407
REMARK  166  A    between atoms: _406  and  _409
REMARK  167  A    between atoms: _409  and  _410
REMARK  168  A    between atoms: _413  and  _415
REMARK  169  A    between atoms: _415  and  _416
REMARK  170  A    between atoms: _415  and  _418
REMARK  171  A    between atoms: _421  and  _423
REMARK  172  A    between atoms: _423  and  _424
REMARK  173  A    between atoms: _423  and  _426
REMARK  174  A    between atoms: _426  and  _427
REMARK  175  A    between atoms: _430  and  _432
REMARK  176  A    between atoms: _432  and  _433
REMARK  177  A    between atoms: _432  and  _435
REMARK  178  A    between atoms: _435  and  _436
REMARK  179  A    between atoms: _439  and  _441
REMARK  180  A    between atoms: _441  and  _442
REMARK  181  A    between atoms: _444  and  _446
REMARK  182  A    between atoms: _446  and  _447
REMARK  183  A    between atoms: _446  and  _449
REMARK  184  A    between atoms: _449  and  _450
REMARK  185  A    between atoms: _453  and  _455
REMARK  186  A    between atoms: _455  and  _456
REMARK  187  A    between atoms: _455  and  _458
REMARK  188  A    between atoms: _458  and  _459
REMARK  189  A    between atoms: _461  and  _463
REMARK  190  A    between atoms: _463  and  _464
REMARK  191  A    between atoms: _463  and  _466
REMARK  192  A    between atoms: _466  and  _467
REMARK  193  A    between atoms: _470  and  _472
REMARK  194  A    between atoms: _472  and  _473
REMARK  195  A    between atoms: _472  and  _475
REMARK  196  A    between atoms: _475  and  _476
REMARK  197  A    between atoms: _476  and  _477
REMARK  198  A    between atoms: _479  and  _481
REMARK  199  A    between atoms: _481  and  _482
REMARK  200  A    between atoms: _481  and  _484
REMARK  201  A    between atoms: _487  and  _489
REMARK  202  A    between atoms: _489  and  _490
REMARK  203  A    between atoms: _489  and  _492
REMARK  204  A    between atoms: _492  and  _493
REMARK  205  A    between atoms: _496  and  _498
REMARK  206  A    between atoms: _498  and  _499
REMARK  207  A    between atoms: _498  and  _501
REMARK  208  A    between atoms: _501  and  _502
REMARK  209  A    between atoms: _502  and  _503
REMARK  210  A    between atoms: _508  and  _510
REMARK  211  A    between atoms: _510  and  _511
REMARK  212  A    between atoms: _510  and  _513
REMARK  213  A    between atoms: _513  and  _514
REMARK  214  A    between atoms: _514  and  _515
REMARK  215  A    between atoms: _518  and  _520
REMARK  216  A    between atoms: _520  and  _521
REMARK  217  A    between atoms: _520  and  _523
REMARK  218  A    between atoms: _523  and  _524
REMARK  219  A    between atoms: _527  and  _529
REMARK  220  A    between atoms: _529  and  _530
REMARK  221  A    between atoms: _529  and  _532
REMARK  222  A    between atoms: _535  and  _537
REMARK  223  A    between atoms: _537  and  _538
REMARK  224  A    between atoms: _537  and  _540
REMARK  225  A    between atoms: _540  and  _541
REMARK  226  A    between atoms: _544  and  _546
REMARK  227  A    between atoms: _546  and  _547
REMARK  228  A    between atoms: _546  and  _549
REMARK  229  A    between atoms: _549  and  _550
REMARK  230  A    between atoms: _552  and  _554
REMARK  231  A    between atoms: _554  and  _555
REMARK  232  A    between atoms: _554  and  _557
REMARK  233  A    between atoms: _557  and  _558
REMARK  234  A    between atoms: _558  and  _559
REMARK  235  A    between atoms: _561  and  _563
REMARK  236  A    between atoms: _563  and  _564
REMARK  237  A    between atoms: _563  and  _566
REMARK  238  A    between atoms: _566  and  _567
REMARK  239  A    between atoms: _567  and  _568
REMARK  240  A    between atoms: _570  and  _572
REMARK  241  A    between atoms: _572  and  _573
REMARK  242  A    between atoms: _572  and  _575
REMARK  243  A    between atoms: _575  and  _576
REMARK  244  A    between atoms: _579  and  _581
REMARK  245  A    between atoms: _581  and  _582
REMARK  246  A    between atoms: _581  and  _584
REMARK  247  A    between atoms: _584  and  _585
REMARK  248  A    between atoms: _589  and  _590
REMARK  249  A    between atoms: _595  and  _597
REMARK  250  A    between atoms: _597  and  _598
REMARK  251  A    between atoms: _597  and  _600
REMARK  252  A    between atoms: _600  and  _601
REMARK  253  A    between atoms: _603  and  _605
REMARK  254  A    between atoms: _605  and  _606
REMARK  255  A    between atoms: _608  and  _610
REMARK  256  A    between atoms: _610  and  _611
REMARK  257  A    between atoms: _610  and  _613
REMARK  258  A    between atoms: _613  and  _614
REMARK  259  A    between atoms: _617  and  _619
REMARK  260  A    between atoms: _619  and  _620
REMARK  261  A    between atoms: _619  and  _622
REMARK  262  A    between atoms: _622  and  _623
REMARK  263  A    between atoms: _626  and  _628
REMARK  264  A    between atoms: _628  and  _629
REMARK  265  A    between atoms: _631  and  _633
REMARK  266  A    between atoms: _633  and  _634
REMARK  267  A    between atoms: _633  and  _636
REMARK  268  A    between atoms: _636  and  _637
REMARK                            x       y       z     vdW  Elec       q    Type
REMARK                         _______ _______ _______ _____ _____    ______ ____
ROOT
ATOM      1  CA  LEU A   1      29.606 102.401  14.020  0.00  0.00    +0.133 C 
ENDROOT
BRANCH   1   2
ATOM      2  N   LEU A   1      29.853 103.441  13.067  0.00  0.00    -0.239 NA
ATOM      3  H   LEU A   1      29.848 103.227  12.049  0.00  0.00    +0.142 HD
ENDBRANCH   1   2
BRANCH   1   4
ATOM      4  C   LEU A   1      30.112 101.110  13.407  0.00  0.00    +0.224 C 
ATOM      5  O   LEU A   1      29.973 100.895  12.199  0.00  0.00    -0.287 OA
ENDBRANCH   1   4
BRANCH   1   6
ATOM      6  CB  LEU A   1      28.113 102.228  14.281  0.00  0.00    +0.025 C 
BRANCH   6   7
ATOM      7  CG  LEU A   1      27.195 103.260  14.923  0.00  0.00    +0.002 C 
ATOM      8  CD2 LEU A   1      27.642 103.483  16.345  0.00  0.00    +0.000 C 
ATOM      9  CD1 LEU A   1      25.746 102.789  14.883  0.00  0.00    +0.000 C 
ENDBRANCH   6   7
ENDBRANCH   1   6
TORSDOF 4
REMARK  Name = ../refined-set-2016/1lyb/1lyb_pocket.pdb
REMARK  268 active torsions:
REMARK  status: ('A' for Active; 'I' for Inactive)
REMARK    1  A    between atoms: _1  and  _3
REMARK    2  A    between atoms: _3  and  _4
REMARK    3  A    between atoms: _3  and  _6
REMARK    4  A    between atoms: _6  and  _7
REMARK    5  A    between atoms: _7  and  _8
REMARK    6  A    between atoms: _10  and  _12
REMARK    7  A    between atoms: _12  and  _13
REMARK    8  A    between atoms: _12  and  _15
REMARK    9  A    between atoms: _15  and  _16
REMARK   10  A    between atoms: _19  and  _21
REMARK   11  A    between atoms: _21  and  _22
REMARK   12  A    between atoms: _25  and  _27
REMARK   13  A    between atoms: _27  and  _28
REMARK   14  A    between atoms: _27  and  _30
REMARK   15  A    between atoms: _30  and  _31
REMARK   16  A    between atoms: _31  and  _32
REMARK   17  A    between atoms: _37  and  _39
REMARK   18  A    between atoms: _39  and  _40
REMARK   19  A    between atoms: _39  and  _42
REMARK   20  A    between atoms: _42  and  _43
REMARK   21  A    between atoms: _48  and  _49
REMARK   22  A    between atoms: _51  and  _53
REMARK   23  A    between atoms: _53  and  _54
REMARK   24  A    between atoms: _53  and  _56
REMARK   25  A    between atoms: _59  and  _61
REMARK   26  A    between atoms: _61  and  _62
REMARK   27  A    between atoms: _61  and  _64
REMARK   28  A    between atoms: _67  and  _69
REMARK   29  A    between atoms: _69  and  _70
REMARK   30  A    between atoms: _69  and  _72
REMARK   31  A    between atoms: _72  and  _73
REMARK   32  A    between atoms: _79  and  _81
REMARK   33  A    between atoms: _81  and  _82
REMARK   34  A    between atoms: _81  and  _84
REMARK   35  A    between atoms: _84  and  _85
REMARK   36  A    between atoms: _88  and  _90
REMARK   37  A    between atoms: _90  and  _91
REMARK   38  A    between atoms: _90  and  _93
REMARK   39  A    between atoms: _93  and  _94
REMARK   40  A    between atoms: _97  and  _99
REMARK   41  A    between atoms: _99  and  _100
REMARK   42  A    between atoms: _102  and  _104
REMARK   43  A    between atoms: _104  and  _105
REMARK   44  A    between atoms: _104  and  _107
REMARK   45  A    between atoms: _107  and  _108
REMARK   46  A    between atoms: _110  and  _112
REMARK   47  A    between atoms: _112  and  _113
REMARK   48  A    between atoms: _112  and  _115
REMARK   49  A    between atoms: _115  and  _116
REMARK   50  A    between atoms: _118  and  _120
REMARK   51  A    between atoms: _120  and  _121
REMARK   52  A    between atoms: _120  and  _123
REMARK   53  A    between atoms: _123  and  _124
REMARK   54  A    between atoms: _129  and  _131
REMARK   55  A    between atoms: _131  and  _132
REMARK   56  A    between atoms: _131  and  _134
REMARK   57  A    between atoms: _134  and  _135
REMARK   58  A    between atoms: _145  and  _147
REMARK   59  A    between atoms: _147  and  _148
REMARK   60  A    between atoms: _147  and  _150
REMARK   61  A    between atoms: _150  and  _151
REMARK   62  A    between atoms: _154  and  _156
REMARK   63  A    between atoms: _156  and  _157
REMARK   64  A    between atoms: _156  and  _159
REMARK   65  A    between atoms: _159  and  _160
REMARK   66  A    between atoms: _163  and  _165
REMARK   67  A    between atoms: _165  and  _166
REMARK   68  A    between atoms: _165  and  _168
REMARK   69  A    between atoms: _168  and  _169
REMARK   70  A    between atoms: _174  and  _176
REMARK   71  A    between atoms: _176  and  _177
REMARK   72  A    between atoms: _176  and  _179
REMARK   73  A    between atoms: _179  and  _180
REMARK   74  A    between atoms: _185  and  _186
REMARK   75  A    between atoms: _188  and  _190
REMARK   76  A    between atoms: _190  and  _191
REMARK   77  A    between atoms: _193  and  _195
REMARK   78  A    between atoms: _195  and  _196
REMARK   79  A    between atoms: _195  and  _198
REMARK   80  A    between atoms: _198  and  _199
REMARK   81  A    between atoms: _201  and  _203
REMARK   82  A    between atoms: _203  and  _204
REMARK   83  A    between atoms: _206  and  _208
REMARK   84  A    between atoms: _208  and  _209
REMARK   85  A    between atoms: _208  and  _211
REMARK   86  A    between atoms: _211  and  _212
REMARK   87  A    between atoms: _214  and  _216
REMARK   88  A    between atoms: _216  and  _217
REMARK   89  A    between atoms: _216  and  _219
REMARK   90  A    between atoms: _219  and  _220
REMARK   91  A    between atoms: _223  and  _225
REMARK   92  A    between atoms: _225  and  _226
REMARK   93  A    between atoms: _225  and  _228
REMARK   94  A    between atoms: _228  and  _229
REMARK   95  A    between atoms: _232  and  _234
REMARK   96  A    between atoms: _234  and  _235
REMARK   97  A    between atoms: _234  and  _237
REMARK   98  A    between atoms: _237  and  _238
REMARK   99  A    between atoms: _244  and  _246
REMARK  100  A    between atoms: _246  and  _247
REMARK  101  A    between atoms: _250  and  _252
REMARK  102  A    between atoms: _252  and  _253
REMARK  103  A    between atoms: _256  and  _258
REMARK  104  A    between atoms: _258  and  _259
REMARK  105  A    between atoms: _258  and  _261
REMARK  106  A    between atoms: _261  and  _262
REMARK  107  A    between atoms: _262  and  _263
REMARK  108  A    between atoms: _263  and  _264
REMARK  109  A    between atoms: _264  and  _265
REMARK  110  A    between atoms: _269  and  _271
REMARK  111  A    between atoms: _271  and  _272
REMARK  112  A    between atoms: _271  and  _274
REMARK  113  A    between atoms: _274  and  _275
REMARK  114  A    between atoms: _281  and  _283
REMARK  115  A    between atoms: _283  and  _284
REMARK  116  A    between atoms: _286  and  _288
REMARK  117  A    between atoms: _288  and  _289
REMARK  118  A    between atoms: _288  and  _291
REMARK  119  A    between atoms: _291  and  _292
REMARK  120  A    between atoms: _295  and  _297
REMARK  121  A    between atoms: _297  and  _298
REMARK  122  A    between atoms: _297  and  _300
REMARK  123  A    between atoms: _300  and  _301
REMARK  124  A    between atoms: _304  and  _306
REMARK  125  A    between atoms: _306  and  _307
REMARK  126  A    between atoms: _306  and  _309
REMARK  127  A    between atoms: _309  and  _310
REMARK  128  A    between atoms: _310  and  _311
REMARK  129  A    between atoms: _313  and  _315
REMARK  130  A    between atoms: _315  and  _316
REMARK  131  A    between atoms: _319  and  _321
REMARK  132  A    between atoms: _321  and  _322
REMARK  133  A    between atoms: _321  and  _324
REMARK  134  A    between atoms: _324  and  _325
REMARK  135  A    between atoms: _328  and  _330
REMARK  136  A    between atoms: _330  and  _331
REMARK  137  A    between atoms: _330  and  _333
REMARK  138  A    between atoms: _333  and  _334
REMARK  139  A    between atoms: _336  and  _338
REMARK  140  A    between atoms: _338  and  _339
REMARK  141  A    between atoms: _338  and  _341
REMARK  142  A    between atoms: _344  and  _346
REMARK  143  A    between atoms: _346  and  _347
REMARK  144  A    between atoms: _346  and  _349
REMARK  145  A    between atoms: _349  and  _350
REMARK  146  A    between atoms: _350  and  _351
REMARK  147  A    between atoms: _351  and  _352
REMARK  148  A    between atoms: _361  and  _363
REMARK  149  A    between atoms: _363  and  _364
REMARK  150  A    between atoms: _363  and  _366
REMARK  151  A    between atoms: _366  and  _367
REMARK  152  A    between atoms: _367  and  _368
REMARK  153  A    between atoms: _368  and  _369
REMARK  154  A    between atoms: _378  and  _380
REMARK  155  A    between atoms: _380  and  _381
REMARK  156  A    between atoms: _380  and  _383
REMARK  157  A    between atoms: _383  and  _384
REMARK  158  A    between atoms: _389  and  _390
REMARK  159  A    between atoms: _392  and  _394
REMARK  160  A    between atoms: _394  and  _395
REMARK  161  A    between atoms: _394  and  _397
REMARK  162  A    between atoms: _397  and  _398
REMARK  163  A    between atoms: _398  and  _399
REMARK  164  A    between atoms: _404  and  _406
REMARK  165  A    between atoms: _406  and  _407
REMARK  166  A    between atoms: _406  and  _409
REMARK  167  A    between atoms: _409  and  _410
REMARK  168  A    between atoms: _413  and  _415
REMARK  169  A    between atoms: _415  and  _416
REMARK  170  A    between atoms: _415  and  _418
REMARK  171  A    between atoms: _421  and  _423
REMARK  172  A    between atoms: _423  and  _424
REMARK  173  A    between atoms: _423  and  _426
REMARK  174  A    between atoms: _426  and  _427
REMARK  175  A    between atoms: _430  and  _432
REMARK  176  A    between atoms: _432  and  _433
REMARK  177  A    between atoms: _432  and  _435
REMARK  178  A    between atoms: _435  and  _436
REMARK  179  A    between atoms: _439  and  _441
REMARK  180  A    between atoms: _441  and  _442
REMARK  181  A    between atoms: _444  and  _446
REMARK  182  A    between atoms: _446  and  _447
REMARK  183  A    between atoms: _446  and  _449
REMARK  184  A    between atoms: _449  and  _450
REMARK  185  A    between atoms: _453  and  _455
REMARK  186  A    between atoms: _455  and  _456
REMARK  187  A    between atoms: _455  and  _458
REMARK  188  A    between atoms: _458  and  _459
REMARK  189  A    between atoms: _461  and  _463
REMARK  190  A    between atoms: _463  and  _464
REMARK  191  A    between atoms: _463  and  _466
REMARK  192  A    between atoms: _466  and  _467
REMARK  193  A    between atoms: _470  and  _472
REMARK  194  A    between atoms: _472  and  _473
REMARK  195  A    between atoms: _472  and  _475
REMARK  196  A    between atoms: _475  and  _476
REMARK  197  A    between atoms: _476  and  _477
REMARK  198  A    between atoms: _479  and  _481
REMARK  199  A    between atoms: _481  and  _482
REMARK  200  A    between atoms: _481  and  _484
REMARK  201  A    between atoms: _487  and  _489
REMARK  202  A    between atoms: _489  and  _490
REMARK  203  A    between atoms: _489  and  _492
REMARK  204  A    between atoms: _492  and  _493
REMARK  205  A    between atoms: _496  and  _498
REMARK  206  A    between atoms: _498  and  _499
REMARK  207  A    between atoms: _498  and  _501
REMARK  208  A    between atoms: _501  and  _502
REMARK  209  A    between atoms: _502  and  _503
REMARK  210  A    between atoms: _508  and  _510
REMARK  211  A    between atoms: _510  and  _511
REMARK  212  A    between atoms: _510  and  _513
REMARK  213  A    between atoms: _513  and  _514
REMARK  214  A    between atoms: _514  and  _515
REMARK  215  A    between atoms: _518  and  _520
REMARK  216  A    between atoms: _520  and  _521
REMARK  217  A    between atoms: _520  and  _523
REMARK  218  A    between atoms: _523  and  _524
REMARK  219  A    between atoms: _527  and  _529
REMARK  220  A    between atoms: _529  and  _530
REMARK  221  A    between atoms: _529  and  _532
REMARK  222  A    between atoms: _535  and  _537
REMARK  223  A    between atoms: _537  and  _538
REMARK  224  A    between atoms: _537  and  _540
REMARK  225  A    between atoms: _540  and  _541
REMARK  226  A    between atoms: _544  and  _546
REMARK  227  A    between atoms: _546  and  _547
REMARK  228  A    between atoms: _546  and  _549
REMARK  229  A    between atoms: _549  and  _550
REMARK  230  A    between atoms: _552  and  _554
REMARK  231  A    between atoms: _554  and  _555
REMARK  232  A    between atoms: _554  and  _557
REMARK  233  A    between atoms: _557  and  _558
REMARK  234  A    between atoms: _558  and  _559
REMARK  235  A    between atoms: _561  and  _563
REMARK  236  A    between atoms: _563  and  _564
REMARK  237  A    between atoms: _563  and  _566
REMARK  238  A    between atoms: _566  and  _567
REMARK  239  A    between atoms: _567  and  _568
REMARK  240  A    between atoms: _570  and  _572
REMARK  241  A    between atoms: _572  and  _573
REMARK  242  A    between atoms: _572  and  _575
REMARK  243  A    between atoms: _575  and  _576
REMARK  244  A    between atoms: _579  and  _581
REMARK  245  A    between atoms: _581  and  _582
REMARK  246  A    between atoms: _581  and  _584
REMARK  247  A    between atoms: _584  and  _585
REMARK  248  A    between atoms: _589  and  _590
REMARK  249  A    between atoms: _595  and  _597
REMARK  250  A    between atoms: _597  and  _598
REMARK  251  A    between atoms: _597  and  _600
REMARK  252  A    between atoms: _600  and  _601
REMARK  253  A    between atoms: _603  and  _605
REMARK  254  A    between atoms: _605  and  _606
REMARK  255  A    between atoms: _608  and  _610
REMARK  256  A    between atoms: _610  and  _611
REMARK  257  A    between atoms: _610  and  _613
REMARK  258  A    between atoms: _613  and  _614
REMARK  259  A    between atoms: _617  and  _619
REMARK  260  A    between atoms: _619  and  _620
REMARK  261  A    between atoms: _619  and  _622
REMARK  262  A    between atoms: _622  and  _623
REMARK  263  A    between atoms: _626  and  _628
REMARK  264  A    between atoms: _628  and  _629
REMARK  265  A    between atoms: _631  and  _633
REMARK  266  A    between atoms: _633  and  _634
REMARK  267  A    between atoms: _633  and  _636
REMARK  268  A    between atoms: _636  and  _637
REMARK                            x       y       z     vdW  Elec       q    Type
REMARK                         _______ _______ _______ _____ _____    ______ ____
ROOT
ATOM      1  CA  ILE A   1      28.397  96.140  14.301  0.00  0.00    +0.133 C 
ENDROOT
BRANCH   1   2
ATOM      2  N   ILE A   1      29.511  96.970  13.872  0.00  0.00    -0.239 NA
ATOM      3  H   ILE A   1      30.097  96.613  13.091  0.00  0.00    +0.142 HD
ENDBRANCH   1   2
BRANCH   1   4
ATOM      4  C   ILE A   1      28.999  94.779  14.662  0.00  0.00    +0.224 C 
ATOM      5  O   ILE A   1      29.702  94.176  13.837  0.00  0.00    -0.287 OA
ENDBRANCH   1   4
BRANCH   1   6
ATOM      6  CB  ILE A   1      27.374  95.982  13.151  0.00  0.00    +0.023 C 
ATOM      7  CG2 ILE A   1      26.344  95.018  13.614  0.00  0.00    +0.002 C 
BRANCH   6   8
ATOM      8  CG1 ILE A   1      26.730  97.315  12.750  0.00  0.00    +0.002 C 
ATOM      9  CD1 ILE A   1      25.610  97.339  11.669  0.00  0.00    +0.000 C 
ENDBRANCH   6   8
ENDBRANCH   1   6
TORSDOF 4
REMARK  Name = ../refined-set-2016/1lyb/1lyb_pocket.pdb
REMARK  268 active torsions:
REMARK  status: ('A' for Active; 'I' for Inactive)
REMARK    1  A    between atoms: _1  and  _3
REMARK    2  A    between atoms: _3  and  _4
REMARK    3  A    between atoms: _3  and  _6
REMARK    4  A    between atoms: _6  and  _7
REMARK    5  A    between atoms: _7  and  _8
REMARK    6  A    between atoms: _10  and  _12
REMARK    7  A    between atoms: _12  and  _13
REMARK    8  A    between atoms: _12  and  _15
REMARK    9  A    between atoms: _15  and  _16
REMARK   10  A    between atoms: _19  and  _21
REMARK   11  A    between atoms: _21  and  _22
REMARK   12  A    between atoms: _25  and  _27
REMARK   13  A    between atoms: _27  and  _28
REMARK   14  A    between atoms: _27  and  _30
REMARK   15  A    between atoms: _30  and  _31
REMARK   16  A    between atoms: _31  and  _32
REMARK   17  A    between atoms: _37  and  _39
REMARK   18  A    between atoms: _39  and  _40
REMARK   19  A    between atoms: _39  and  _42
REMARK   20  A    between atoms: _42  and  _43
REMARK   21  A    between atoms: _48  and  _49
REMARK   22  A    between atoms: _51  and  _53
REMARK   23  A    between atoms: _53  and  _54
REMARK   24  A    between atoms: _53  and  _56
REMARK   25  A    between atoms: _59  and  _61
REMARK   26  A    between atoms: _61  and  _62
REMARK   27  A    between atoms: _61  and  _64
REMARK   28  A    between atoms: _67  and  _69
REMARK   29  A    between atoms: _69  and  _70
REMARK   30  A    between atoms: _69  and  _72
REMARK   31  A    between atoms: _72  and  _73
REMARK   32  A    between atoms: _79  and  _81
REMARK   33  A    between atoms: _81  and  _82
REMARK   34  A    between atoms: _81  and  _84
REMARK   35  A    between atoms: _84  and  _85
REMARK   36  A    between atoms: _88  and  _90
REMARK   37  A    between atoms: _90  and  _91
REMARK   38  A    between atoms: _90  and  _93
REMARK   39  A    between atoms: _93  and  _94
REMARK   40  A    between atoms: _97  and  _99
REMARK   41  A    between atoms: _99  and  _100
REMARK   42  A    between atoms: _102  and  _104
REMARK   43  A    between atoms: _104  and  _105
REMARK   44  A    between atoms: _104  and  _107
REMARK   45  A    between atoms: _107  and  _108
REMARK   46  A    between atoms: _110  and  _112
REMARK   47  A    between atoms: _112  and  _113
REMARK   48  A    between atoms: _112  and  _115
REMARK   49  A    between atoms: _115  and  _116
REMARK   50  A    between atoms: _118  and  _120
REMARK   51  A    between atoms: _120  and  _121
REMARK   52  A    between atoms: _120  and  _123
REMARK   53  A    between atoms: _123  and  _124
REMARK   54  A    between atoms: _129  and  _131
REMARK   55  A    between atoms: _131  and  _132
REMARK   56  A    between atoms: _131  and  _134
REMARK   57  A    between atoms: _134  and  _135
REMARK   58  A    between atoms: _145  and  _147
REMARK   59  A    between atoms: _147  and  _148
REMARK   60  A    between atoms: _147  and  _150
REMARK   61  A    between atoms: _150  and  _151
REMARK   62  A    between atoms: _154  and  _156
REMARK   63  A    between atoms: _156  and  _157
REMARK   64  A    between atoms: _156  and  _159
REMARK   65  A    between atoms: _159  and  _160
REMARK   66  A    between atoms: _163  and  _165
REMARK   67  A    between atoms: _165  and  _166
REMARK   68  A    between atoms: _165  and  _168
REMARK   69  A    between atoms: _168  and  _169
REMARK   70  A    between atoms: _174  and  _176
REMARK   71  A    between atoms: _176  and  _177
REMARK   72  A    between atoms: _176  and  _179
REMARK   73  A    between atoms: _179  and  _180
REMARK   74  A    between atoms: _185  and  _186
REMARK   75  A    between atoms: _188  and  _190
REMARK   76  A    between atoms: _190  and  _191
REMARK   77  A    between atoms: _193  and  _195
REMARK   78  A    between atoms: _195  and  _196
REMARK   79  A    between atoms: _195  and  _198
REMARK   80  A    between atoms: _198  and  _199
REMARK   81  A    between atoms: _201  and  _203
REMARK   82  A    between atoms: _203  and  _204
REMARK   83  A    between atoms: _206  and  _208
REMARK   84  A    between atoms: _208  and  _209
REMARK   85  A    between atoms: _208  and  _211
REMARK   86  A    between atoms: _211  and  _212
REMARK   87  A    between atoms: _214  and  _216
REMARK   88  A    between atoms: _216  and  _217
REMARK   89  A    between atoms: _216  and  _219
REMARK   90  A    between atoms: _219  and  _220
REMARK   91  A    between atoms: _223  and  _225
REMARK   92  A    between atoms: _225  and  _226
REMARK   93  A    between atoms: _225  and  _228
REMARK   94  A    between atoms: _228  and  _229
REMARK   95  A    between atoms: _232  and  _234
REMARK   96  A    between atoms: _234  and  _235
REMARK   97  A    between atoms: _234  and  _237
REMARK   98  A    between atoms: _237  and  _238
REMARK   99  A    between atoms: _244  and  _246
REMARK  100  A    between atoms: _246  and  _247
REMARK  101  A    between atoms: _250  and  _252
REMARK  102  A    between atoms: _252  and  _253
REMARK  103  A    between atoms: _256  and  _258
REMARK  104  A    between atoms: _258  and  _259
REMARK  105  A    between atoms: _258  and  _261
REMARK  106  A    between atoms: _261  and  _262
REMARK  107  A    between atoms: _262  and  _263
REMARK  108  A    between atoms: _263  and  _264
REMARK  109  A    between atoms: _264  and  _265
REMARK  110  A    between atoms: _269  and  _271
REMARK  111  A    between atoms: _271  and  _272
REMARK  112  A    between atoms: _271  and  _274
REMARK  113  A    between atoms: _274  and  _275
REMARK  114  A    between atoms: _281  and  _283
REMARK  115  A    between atoms: _283  and  _284
REMARK  116  A    between atoms: _286  and  _288
REMARK  117  A    between atoms: _288  and  _289
REMARK  118  A    between atoms: _288  and  _291
REMARK  119  A    between atoms: _291  and  _292
REMARK  120  A    between atoms: _295  and  _297
REMARK  121  A    between atoms: _297  and  _298
REMARK  122  A    between atoms: _297  and  _300
REMARK  123  A    between atoms: _300  and  _301
REMARK  124  A    between atoms: _304  and  _306
REMARK  125  A    between atoms: _306  and  _307
REMARK  126  A    between atoms: _306  and  _309
REMARK  127  A    between atoms: _309  and  _310
REMARK  128  A    between atoms: _310  and  _311
REMARK  129  A    between atoms: _313  and  _315
REMARK  130  A    between atoms: _315  and  _316
REMARK  131  A    between atoms: _319  and  _321
REMARK  132  A    between atoms: _321  and  _322
REMARK  133  A    between atoms: _321  and  _324
REMARK  134  A    between atoms: _324  and  _325
REMARK  135  A    between atoms: _328  and  _330
REMARK  136  A    between atoms: _330  and  _331
REMARK  137  A    between atoms: _330  and  _333
REMARK  138  A    between atoms: _333  and  _334
REMARK  139  A    between atoms: _336  and  _338
REMARK  140  A    between atoms: _338  and  _339
REMARK  141  A    between atoms: _338  and  _341
REMARK  142  A    between atoms: _344  and  _346
REMARK  143  A    between atoms: _346  and  _347
REMARK  144  A    between atoms: _346  and  _349
REMARK  145  A    between atoms: _349  and  _350
REMARK  146  A    between atoms: _350  and  _351
REMARK  147  A    between atoms: _351  and  _352
REMARK  148  A    between atoms: _361  and  _363
REMARK  149  A    between atoms: _363  and  _364
REMARK  150  A    between atoms: _363  and  _366
REMARK  151  A    between atoms: _366  and  _367
REMARK  152  A    between atoms: _367  and  _368
REMARK  153  A    between atoms: _368  and  _369
REMARK  154  A    between atoms: _378  and  _380
REMARK  155  A    between atoms: _380  and  _381
REMARK  156  A    between atoms: _380  and  _383
REMARK  157  A    between atoms: _383  and  _384
REMARK  158  A    between atoms: _389  and  _390
REMARK  159  A    between atoms: _392  and  _394
REMARK  160  A    between atoms: _394  and  _395
REMARK  161  A    between atoms: _394  and  _397
REMARK  162  A    between atoms: _397  and  _398
REMARK  163  A    between atoms: _398  and  _399
REMARK  164  A    between atoms: _404  and  _406
REMARK  165  A    between atoms: _406  and  _407
REMARK  166  A    between atoms: _406  and  _409
REMARK  167  A    between atoms: _409  and  _410
REMARK  168  A    between atoms: _413  and  _415
REMARK  169  A    between atoms: _415  and  _416
REMARK  170  A    between atoms: _415  and  _418
REMARK  171  A    between atoms: _421  and  _423
REMARK  172  A    between atoms: _423  and  _424
REMARK  173  A    between atoms: _423  and  _426
REMARK  174  A    between atoms: _426  and  _427
REMARK  175  A    between atoms: _430  and  _432
REMARK  176  A    between atoms: _432  and  _433
REMARK  177  A    between atoms: _432  and  _435
REMARK  178  A    between atoms: _435  and  _436
REMARK  179  A    between atoms: _439  and  _441
REMARK  180  A    between atoms: _441  and  _442
REMARK  181  A    between atoms: _444  and  _446
REMARK  182  A    between atoms: _446  and  _447
REMARK  183  A    between atoms: _446  and  _449
REMARK  184  A    between atoms: _449  and  _450
REMARK  185  A    between atoms: _453  and  _455
REMARK  186  A    between atoms: _455  and  _456
REMARK  187  A    between atoms: _455  and  _458
REMARK  188  A    between atoms: _458  and  _459
REMARK  189  A    between atoms: _461  and  _463
REMARK  190  A    between atoms: _463  and  _464
REMARK  191  A    between atoms: _463  and  _466
REMARK  192  A    between atoms: _466  and  _467
REMARK  193  A    between atoms: _470  and  _472
REMARK  194  A    between atoms: _472  and  _473
REMARK  195  A    between atoms: _472  and  _475
REMARK  196  A    between atoms: _475  and  _476
REMARK  197  A    between atoms: _476  and  _477
REMARK  198  A    between atoms: _479  and  _481
REMARK  199  A    between atoms: _481  and  _482
REMARK  200  A    between atoms: _481  and  _484
REMARK  201  A    between atoms: _487  and  _489
REMARK  202  A    between atoms: _489  and  _490
REMARK  203  A    between atoms: _489  and  _492
REMARK  204  A    between atoms: _492  and  _493
REMARK  205  A    between atoms: _496  and  _498
REMARK  206  A    between atoms: _498  and  _499
REMARK  207  A    between atoms: _498  and  _501
REMARK  208  A    between atoms: _501  and  _502
REMARK  209  A    between atoms: _502  and  _503
REMARK  210  A    between atoms: _508  and  _510
REMARK  211  A    between atoms: _510  and  _511
REMARK  212  A    between atoms: _510  and  _513
REMARK  213  A    between atoms: _513  and  _514
REMARK  214  A    between atoms: _514  and  _515
REMARK  215  A    between atoms: _518  and  _520
REMARK  216  A    between atoms: _520  and  _521
REMARK  217  A    between atoms: _520  and  _523
REMARK  218  A    between atoms: _523  and  _524
REMARK  219  A    between atoms: _527  and  _529
REMARK  220  A    between atoms: _529  and  _530
REMARK  221  A    between atoms: _529  and  _532
REMARK  222  A    between atoms: _535  and  _537
REMARK  223  A    between atoms: _537  and  _538
REMARK  224  A    between atoms: _537  and  _540
REMARK  225  A    between atoms: _540  and  _541
REMARK  226  A    between atoms: _544  and  _546
REMARK  227  A    between atoms: _546  and  _547
REMARK  228  A    between atoms: _546  and  _549
REMARK  229  A    between atoms: _549  and  _550
REMARK  230  A    between atoms: _552  and  _554
REMARK  231  A    between atoms: _554  and  _555
REMARK  232  A    between atoms: _554  and  _557
REMARK  233  A    between atoms: _557  and  _558
REMARK  234  A    between atoms: _558  and  _559
REMARK  235  A    between atoms: _561  and  _563
REMARK  236  A    between atoms: _563  and  _564
REMARK  237  A    between atoms: _563  and  _566
REMARK  238  A    between atoms: _566  and  _567
REMARK  239  A    between atoms: _567  and  _568
REMARK  240  A    between atoms: _570  and  _572
REMARK  241  A    between atoms: _572  and  _573
REMARK  242  A    between atoms: _572  and  _575
REMARK  243  A    between atoms: _575  and  _576
REMARK  244  A    between atoms: _579  and  _581
REMARK  245  A    between atoms: _581  and  _582
REMARK  246  A    between atoms: _581  and  _584
REMARK  247  A    between atoms: _584  and  _585
REMARK  248  A    between atoms: _589  and  _590
REMARK  249  A    between atoms: _595  and  _597
REMARK  250  A    between atoms: _597  and  _598
REMARK  251  A    between atoms: _597  and  _600
REMARK  252  A    between atoms: _600  and  _601
REMARK  253  A    between atoms: _603  and  _605
REMARK  254  A    between atoms: _605  and  _606
REMARK  255  A    between atoms: _608  and  _610
REMARK  256  A    between atoms: _610  and  _611
REMARK  257  A    between atoms: _610  and  _613
REMARK  258  A    between atoms: _613  and  _614
REMARK  259  A    between atoms: _617  and  _619
REMARK  260  A    between atoms: _619  and  _620
REMARK  261  A    between atoms: _619  and  _622
REMARK  262  A    between atoms: _622  and  _623
REMARK  263  A    between atoms: _626  and  _628
REMARK  264  A    between atoms: _628  and  _629
REMARK  265  A    between atoms: _631  and  _633
REMARK  266  A    between atoms: _633  and  _634
REMARK  267  A    between atoms: _633  and  _636
REMARK  268  A    between atoms: _636  and  _637
REMARK                            x       y       z     vdW  Elec       q    Type
REMARK                         _______ _______ _______ _____ _____    ______ ____
ROOT
ATOM      1  C   GLY A   1      27.047  89.015  15.112  0.00  0.00    +0.240 C 
ATOM      2  O   GLY A   1      27.867  88.653  15.972  0.00  0.00    -0.274 OA
ATOM      3  N   ASP A   2      26.302  88.141  14.450  0.00  0.00    -0.298 N 
ATOM      4  H   ASP A   2      25.719  88.491  13.663  0.00  0.00    +0.150 HD
ENDROOT
BRANCH   1   5
ATOM      5  CA  GLY A   1      26.880  90.452  14.650  0.00  0.00    +0.169 C 
BRANCH   5   6
ATOM      6  N   GLY A   1      28.043  91.273  14.913  0.00  0.00    -0.236 NA
ATOM      7  H   GLY A   1      28.852  91.221  14.262  0.00  0.00    +0.142 HD
ENDBRANCH   5   6
ENDBRANCH   1   5
BRANCH   3   8
ATOM      8  CA  ASP A   2      26.253  86.723  14.761  0.00  0.00    +0.148 C 
BRANCH   8   9
ATOM      9  C   ASP A   2      27.608  86.049  14.783  0.00  0.00    +0.227 C 
ATOM     10  O   ASP A   2      27.859  85.185  15.618  0.00  0.00    -0.286 OA
ENDBRANCH   8   9
BRANCH   8  11
ATOM     11  CB  ASP A   2      25.352  86.026  13.765  0.00  0.00    +0.142 C 
BRANCH  11  12
ATOM     12  CG  ASP A   2      23.949  86.617  13.795  0.00  0.00    +0.367 C 
ATOM     13  OD2 ASP A   2      23.505  87.056  14.857  0.00  0.00    -0.246 OA
ATOM     14  OD1 ASP A   2      23.303  86.641  12.745  0.00  0.00    -0.246 OA
ENDBRANCH  11  12
ENDBRANCH   8  11
ENDBRANCH   3   8
TORSDOF 6
REMARK  Name = ../refined-set-2016/1lyb/1lyb_pocket.pdb
REMARK  268 active torsions:
REMARK  status: ('A' for Active; 'I' for Inactive)
REMARK    1  A    between atoms: _1  and  _3
REMARK    2  A    between atoms: _3  and  _4
REMARK    3  A    between atoms: _3  and  _6
REMARK    4  A    between atoms: _6  and  _7
REMARK    5  A    between atoms: _7  and  _8
REMARK    6  A    between atoms: _10  and  _12
REMARK    7  A    between atoms: _12  and  _13
REMARK    8  A    between atoms: _12  and  _15
REMARK    9  A    between atoms: _15  and  _16
REMARK   10  A    between atoms: _19  and  _21
REMARK   11  A    between atoms: _21  and  _22
REMARK   12  A    between atoms: _25  and  _27
REMARK   13  A    between atoms: _27  and  _28
REMARK   14  A    between atoms: _27  and  _30
REMARK   15  A    between atoms: _30  and  _31
REMARK   16  A    between atoms: _31  and  _32
REMARK   17  A    between atoms: _37  and  _39
REMARK   18  A    between atoms: _39  and  _40
REMARK   19  A    between atoms: _39  and  _42
REMARK   20  A    between atoms: _42  and  _43
REMARK   21  A    between atoms: _48  and  _49
REMARK   22  A    between atoms: _51  and  _53
REMARK   23  A    between atoms: _53  and  _54
REMARK   24  A    between atoms: _53  and  _56
REMARK   25  A    between atoms: _59  and  _61
REMARK   26  A    between atoms: _61  and  _62
REMARK   27  A    between atoms: _61  and  _64
REMARK   28  A    between atoms: _67  and  _69
REMARK   29  A    between atoms: _69  and  _70
REMARK   30  A    between atoms: _69  and  _72
REMARK   31  A    between atoms: _72  and  _73
REMARK   32  A    between atoms: _79  and  _81
REMARK   33  A    between atoms: _81  and  _82
REMARK   34  A    between atoms: _81  and  _84
REMARK   35  A    between atoms: _84  and  _85
REMARK   36  A    between atoms: _88  and  _90
REMARK   37  A    between atoms: _90  and  _91
REMARK   38  A    between atoms: _90  and  _93
REMARK   39  A    between atoms: _93  and  _94
REMARK   40  A    between atoms: _97  and  _99
REMARK   41  A    between atoms: _99  and  _100
REMARK   42  A    between atoms: _102  and  _104
REMARK   43  A    between atoms: _104  and  _105
REMARK   44  A    between atoms: _104  and  _107
REMARK   45  A    between atoms: _107  and  _108
REMARK   46  A    between atoms: _110  and  _112
REMARK   47  A    between atoms: _112  and  _113
REMARK   48  A    between atoms: _112  and  _115
REMARK   49  A    between atoms: _115  and  _116
REMARK   50  A    between atoms: _118  and  _120
REMARK   51  A    between atoms: _120  and  _121
REMARK   52  A    between atoms: _120  and  _123
REMARK   53  A    between atoms: _123  and  _124
REMARK   54  A    between atoms: _129  and  _131
REMARK   55  A    between atoms: _131  and  _132
REMARK   56  A    between atoms: _131  and  _134
REMARK   57  A    between atoms: _134  and  _135
REMARK   58  A    between atoms: _145  and  _147
REMARK   59  A    between atoms: _147  and  _148
REMARK   60  A    between atoms: _147  and  _150
REMARK   61  A    between atoms: _150  and  _151
REMARK   62  A    between atoms: _154  and  _156
REMARK   63  A    between atoms: _156  and  _157
REMARK   64  A    between atoms: _156  and  _159
REMARK   65  A    between atoms: _159  and  _160
REMARK   66  A    between atoms: _163  and  _165
REMARK   67  A    between atoms: _165  and  _166
REMARK   68  A    between atoms: _165  and  _168
REMARK   69  A    between atoms: _168  and  _169
REMARK   70  A    between atoms: _174  and  _176
REMARK   71  A    between atoms: _176  and  _177
REMARK   72  A    between atoms: _176  and  _179
REMARK   73  A    between atoms: _179  and  _180
REMARK   74  A    between atoms: _185  and  _186
REMARK   75  A    between atoms: _188  and  _190
REMARK   76  A    between atoms: _190  and  _191
REMARK   77  A    between atoms: _193  and  _195
REMARK   78  A    between atoms: _195  and  _196
REMARK   79  A    between atoms: _195  and  _198
REMARK   80  A    between atoms: _198  and  _199
REMARK   81  A    between atoms: _201  and  _203
REMARK   82  A    between atoms: _203  and  _204
REMARK   83  A    between atoms: _206  and  _208
REMARK   84  A    between atoms: _208  and  _209
REMARK   85  A    between atoms: _208  and  _211
REMARK   86  A    between atoms: _211  and  _212
REMARK   87  A    between atoms: _214  and  _216
REMARK   88  A    between atoms: _216  and  _217
REMARK   89  A    between atoms: _216  and  _219
REMARK   90  A    between atoms: _219  and  _220
REMARK   91  A    between atoms: _223  and  _225
REMARK   92  A    between atoms: _225  and  _226
REMARK   93  A    between atoms: _225  and  _228
REMARK   94  A    between atoms: _228  and  _229
REMARK   95  A    between atoms: _232  and  _234
REMARK   96  A    between atoms: _234  and  _235
REMARK   97  A    between atoms: _234  and  _237
REMARK   98  A    between atoms: _237  and  _238
REMARK   99  A    between atoms: _244  and  _246
REMARK  100  A    between atoms: _246  and  _247
REMARK  101  A    between atoms: _250  and  _252
REMARK  102  A    between atoms: _252  and  _253
REMARK  103  A    between atoms: _256  and  _258
REMARK  104  A    between atoms: _258  and  _259
REMARK  105  A    between atoms: _258  and  _261
REMARK  106  A    between atoms: _261  and  _262
REMARK  107  A    between atoms: _262  and  _263
REMARK  108  A    between atoms: _263  and  _264
REMARK  109  A    between atoms: _264  and  _265
REMARK  110  A    between atoms: _269  and  _271
REMARK  111  A    between atoms: _271  and  _272
REMARK  112  A    between atoms: _271  and  _274
REMARK  113  A    between atoms: _274  and  _275
REMARK  114  A    between atoms: _281  and  _283
REMARK  115  A    between atoms: _283  and  _284
REMARK  116  A    between atoms: _286  and  _288
REMARK  117  A    between atoms: _288  and  _289
REMARK  118  A    between atoms: _288  and  _291
REMARK  119  A    between atoms: _291  and  _292
REMARK  120  A    between atoms: _295  and  _297
REMARK  121  A    between atoms: _297  and  _298
REMARK  122  A    between atoms: _297  and  _300
REMARK  123  A    between atoms: _300  and  _301
REMARK  124  A    between atoms: _304  and  _306
REMARK  125  A    between atoms: _306  and  _307
REMARK  126  A    between atoms: _306  and  _309
REMARK  127  A    between atoms: _309  and  _310
REMARK  128  A    between atoms: _310  and  _311
REMARK  129  A    between atoms: _313  and  _315
REMARK  130  A    between atoms: _315  and  _316
REMARK  131  A    between atoms: _319  and  _321
REMARK  132  A    between atoms: _321  and  _322
REMARK  133  A    between atoms: _321  and  _324
REMARK  134  A    between atoms: _324  and  _325
REMARK  135  A    between atoms: _328  and  _330
REMARK  136  A    between atoms: _330  and  _331
REMARK  137  A    between atoms: _330  and  _333
REMARK  138  A    between atoms: _333  and  _334
REMARK  139  A    between atoms: _336  and  _338
REMARK  140  A    between atoms: _338  and  _339
REMARK  141  A    between atoms: _338  and  _341
REMARK  142  A    between atoms: _344  and  _346
REMARK  143  A    between atoms: _346  and  _347
REMARK  144  A    between atoms: _346  and  _349
REMARK  145  A    between atoms: _349  and  _350
REMARK  146  A    between atoms: _350  and  _351
REMARK  147  A    between atoms: _351  and  _352
REMARK  148  A    between atoms: _361  and  _363
REMARK  149  A    between atoms: _363  and  _364
REMARK  150  A    between atoms: _363  and  _366
REMARK  151  A    between atoms: _366  and  _367
REMARK  152  A    between atoms: _367  and  _368
REMARK  153  A    between atoms: _368  and  _369
REMARK  154  A    between atoms: _378  and  _380
REMARK  155  A    between atoms: _380  and  _381
REMARK  156  A    between atoms: _380  and  _383
REMARK  157  A    between atoms: _383  and  _384
REMARK  158  A    between atoms: _389  and  _390
REMARK  159  A    between atoms: _392  and  _394
REMARK  160  A    between atoms: _394  and  _395
REMARK  161  A    between atoms: _394  and  _397
REMARK  162  A    between atoms: _397  and  _398
REMARK  163  A    between atoms: _398  and  _399
REMARK  164  A    between atoms: _404  and  _406
REMARK  165  A    between atoms: _406  and  _407
REMARK  166  A    between atoms: _406  and  _409
REMARK  167  A    between atoms: _409  and  _410
REMARK  168  A    between atoms: _413  and  _415
REMARK  169  A    between atoms: _415  and  _416
REMARK  170  A    between atoms: _415  and  _418
REMARK  171  A    between atoms: _421  and  _423
REMARK  172  A    between atoms: _423  and  _424
REMARK  173  A    between atoms: _423  and  _426
REMARK  174  A    between atoms: _426  and  _427
REMARK  175  A    between atoms: _430  and  _432
REMARK  176  A    between atoms: _432  and  _433
REMARK  177  A    between atoms: _432  and  _435
REMARK  178  A    between atoms: _435  and  _436
REMARK  179  A    between atoms: _439  and  _441
REMARK  180  A    between atoms: _441  and  _442
REMARK  181  A    between atoms: _444  and  _446
REMARK  182  A    between atoms: _446  and  _447
REMARK  183  A    between atoms: _446  and  _449
REMARK  184  A    between atoms: _449  and  _450
REMARK  185  A    between atoms: _453  and  _455
REMARK  186  A    between atoms: _455  and  _456
REMARK  187  A    between atoms: _455  and  _458
REMARK  188  A    between atoms: _458  and  _459
REMARK  189  A    between atoms: _461  and  _463
REMARK  190  A    between atoms: _463  and  _464
REMARK  191  A    between atoms: _463  and  _466
REMARK  192  A    between atoms: _466  and  _467
REMARK  193  A    between atoms: _470  and  _472
REMARK  194  A    between atoms: _472  and  _473
REMARK  195  A    between atoms: _472  and  _475
REMARK  196  A    between atoms: _475  and  _476
REMARK  197  A    between atoms: _476  and  _477
REMARK  198  A    between atoms: _479  and  _481
REMARK  199  A    between atoms: _481  and  _482
REMARK  200  A    between atoms: _481  and  _484
REMARK  201  A    between atoms: _487  and  _489
REMARK  202  A    between atoms: _489  and  _490
REMARK  203  A    between atoms: _489  and  _492
REMARK  204  A    between atoms: _492  and  _493
REMARK  205  A    between atoms: _496  and  _498
REMARK  206  A    between atoms: _498  and  _499
REMARK  207  A    between atoms: _498  and  _501
REMARK  208  A    between atoms: _501  and  _502
REMARK  209  A    between atoms: _502  and  _503
REMARK  210  A    between atoms: _508  and  _510
REMARK  211  A    between atoms: _510  and  _511
REMARK  212  A    between atoms: _510  and  _513
REMARK  213  A    between atoms: _513  and  _514
REMARK  214  A    between atoms: _514  and  _515
REMARK  215  A    between atoms: _518  and  _520
REMARK  216  A    between atoms: _520  and  _521
REMARK  217  A    between atoms: _520  and  _523
REMARK  218  A    between atoms: _523  and  _524
REMARK  219  A    between atoms: _527  and  _529
REMARK  220  A    between atoms: _529  and  _530
REMARK  221  A    between atoms: _529  and  _532
REMARK  222  A    between atoms: _535  and  _537
REMARK  223  A    between atoms: _537  and  _538
REMARK  224  A    between atoms: _537  and  _540
REMARK  225  A    between atoms: _540  and  _541
REMARK  226  A    between atoms: _544  and  _546
REMARK  227  A    between atoms: _546  and  _547
REMARK  228  A    between atoms: _546  and  _549
REMARK  229  A    between atoms: _549  and  _550
REMARK  230  A    between atoms: _552  and  _554
REMARK  231  A    between atoms: _554  and  _555
REMARK  232  A    between atoms: _554  and  _557
REMARK  233  A    between atoms: _557  and  _558
REMARK  234  A    between atoms: _558  and  _559
REMARK  235  A    between atoms: _561  and  _563
REMARK  236  A    between atoms: _563  and  _564
REMARK  237  A    between atoms: _563  and  _566
REMARK  238  A    between atoms: _566  and  _567
REMARK  239  A    between atoms: _567  and  _568
REMARK  240  A    between atoms: _570  and  _572
REMARK  241  A    between atoms: _572  and  _573
REMARK  242  A    between atoms: _572  and  _575
REMARK  243  A    between atoms: _575  and  _576
REMARK  244  A    between atoms: _579  and  _581
REMARK  245  A    between atoms: _581  and  _582
REMARK  246  A    between atoms: _581  and  _584
REMARK  247  A    between atoms: _584  and  _585
REMARK  248  A    between atoms: _589  and  _590
REMARK  249  A    between atoms: _595  and  _597
REMARK  250  A    between atoms: _597  and  _598
REMARK  251  A    between atoms: _597  and  _600
REMARK  252  A    between atoms: _600  and  _601
REMARK  253  A    between atoms: _603  and  _605
REMARK  254  A    between atoms: _605  and  _606
REMARK  255  A    between atoms: _608  and  _610
REMARK  256  A    between atoms: _610  and  _611
REMARK  257  A    between atoms: _610  and  _613
REMARK  258  A    between atoms: _613  and  _614
REMARK  259  A    between atoms: _617  and  _619
REMARK  260  A    between atoms: _619  and  _620
REMARK  261  A    between atoms: _619  and  _622
REMARK  262  A    between atoms: _622  and  _623
REMARK  263  A    between atoms: _626  and  _628
REMARK  264  A    between atoms: _628  and  _629
REMARK  265  A    between atoms: _631  and  _633
REMARK  266  A    between atoms: _633  and  _634
REMARK  267  A    between atoms: _633  and  _636
REMARK  268  A    between atoms: _636  and  _637
REMARK                            x       y       z     vdW  Elec       q    Type
REMARK                         _______ _______ _______ _____ _____    ______ ____
ROOT
ATOM      1  O   HOH     1      19.987  86.518  11.373  0.00  0.00    +0.000 OA
ENDROOT
TORSDOF 0
REMARK  Name = ../refined-set-2016/1lyb/1lyb_pocket.pdb
REMARK  268 active torsions:
REMARK  status: ('A' for Active; 'I' for Inactive)
REMARK    1  A    between atoms: _1  and  _3
REMARK    2  A    between atoms: _3  and  _4
REMARK    3  A    between atoms: _3  and  _6
REMARK    4  A    between atoms: _6  and  _7
REMARK    5  A    between atoms: _7  and  _8
REMARK    6  A    between atoms: _10  and  _12
REMARK    7  A    between atoms: _12  and  _13
REMARK    8  A    between atoms: _12  and  _15
REMARK    9  A    between atoms: _15  and  _16
REMARK   10  A    between atoms: _19  and  _21
REMARK   11  A    between atoms: _21  and  _22
REMARK   12  A    between atoms: _25  and  _27
REMARK   13  A    between atoms: _27  and  _28
REMARK   14  A    between atoms: _27  and  _30
REMARK   15  A    between atoms: _30  and  _31
REMARK   16  A    between atoms: _31  and  _32
REMARK   17  A    between atoms: _37  and  _39
REMARK   18  A    between atoms: _39  and  _40
REMARK   19  A    between atoms: _39  and  _42
REMARK   20  A    between atoms: _42  and  _43
REMARK   21  A    between atoms: _48  and  _49
REMARK   22  A    between atoms: _51  and  _53
REMARK   23  A    between atoms: _53  and  _54
REMARK   24  A    between atoms: _53  and  _56
REMARK   25  A    between atoms: _59  and  _61
REMARK   26  A    between atoms: _61  and  _62
REMARK   27  A    between atoms: _61  and  _64
REMARK   28  A    between atoms: _67  and  _69
REMARK   29  A    between atoms: _69  and  _70
REMARK   30  A    between atoms: _69  and  _72
REMARK   31  A    between atoms: _72  and  _73
REMARK   32  A    between atoms: _79  and  _81
REMARK   33  A    between atoms: _81  and  _82
REMARK   34  A    between atoms: _81  and  _84
REMARK   35  A    between atoms: _84  and  _85
REMARK   36  A    between atoms: _88  and  _90
REMARK   37  A    between atoms: _90  and  _91
REMARK   38  A    between atoms: _90  and  _93
REMARK   39  A    between atoms: _93  and  _94
REMARK   40  A    between atoms: _97  and  _99
REMARK   41  A    between atoms: _99  and  _100
REMARK   42  A    between atoms: _102  and  _104
REMARK   43  A    between atoms: _104  and  _105
REMARK   44  A    between atoms: _104  and  _107
REMARK   45  A    between atoms: _107  and  _108
REMARK   46  A    between atoms: _110  and  _112
REMARK   47  A    between atoms: _112  and  _113
REMARK   48  A    between atoms: _112  and  _115
REMARK   49  A    between atoms: _115  and  _116
REMARK   50  A    between atoms: _118  and  _120
REMARK   51  A    between atoms: _120  and  _121
REMARK   52  A    between atoms: _120  and  _123
REMARK   53  A    between atoms: _123  and  _124
REMARK   54  A    between atoms: _129  and  _131
REMARK   55  A    between atoms: _131  and  _132
REMARK   56  A    between atoms: _131  and  _134
REMARK   57  A    between atoms: _134  and  _135
REMARK   58  A    between atoms: _145  and  _147
REMARK   59  A    between atoms: _147  and  _148
REMARK   60  A    between atoms: _147  and  _150
REMARK   61  A    between atoms: _150  and  _151
REMARK   62  A    between atoms: _154  and  _156
REMARK   63  A    between atoms: _156  and  _157
REMARK   64  A    between atoms: _156  and  _159
REMARK   65  A    between atoms: _159  and  _160
REMARK   66  A    between atoms: _163  and  _165
REMARK   67  A    between atoms: _165  and  _166
REMARK   68  A    between atoms: _165  and  _168
REMARK   69  A    between atoms: _168  and  _169
REMARK   70  A    between atoms: _174  and  _176
REMARK   71  A    between atoms: _176  and  _177
REMARK   72  A    between atoms: _176  and  _179
REMARK   73  A    between atoms: _179  and  _180
REMARK   74  A    between atoms: _185  and  _186
REMARK   75  A    between atoms: _188  and  _190
REMARK   76  A    between atoms: _190  and  _191
REMARK   77  A    between atoms: _193  and  _195
REMARK   78  A    between atoms: _195  and  _196
REMARK   79  A    between atoms: _195  and  _198
REMARK   80  A    between atoms: _198  and  _199
REMARK   81  A    between atoms: _201  and  _203
REMARK   82  A    between atoms: _203  and  _204
REMARK   83  A    between atoms: _206  and  _208
REMARK   84  A    between atoms: _208  and  _209
REMARK   85  A    between atoms: _208  and  _211
REMARK   86  A    between atoms: _211  and  _212
REMARK   87  A    between atoms: _214  and  _216
REMARK   88  A    between atoms: _216  and  _217
REMARK   89  A    between atoms: _216  and  _219
REMARK   90  A    between atoms: _219  and  _220
REMARK   91  A    between atoms: _223  and  _225
REMARK   92  A    between atoms: _225  and  _226
REMARK   93  A    between atoms: _225  and  _228
REMARK   94  A    between atoms: _228  and  _229
REMARK   95  A    between atoms: _232  and  _234
REMARK   96  A    between atoms: _234  and  _235
REMARK   97  A    between atoms: _234  and  _237
REMARK   98  A    between atoms: _237  and  _238
REMARK   99  A    between atoms: _244  and  _246
REMARK  100  A    between atoms: _246  and  _247
REMARK  101  A    between atoms: _250  and  _252
REMARK  102  A    between atoms: _252  and  _253
REMARK  103  A    between atoms: _256  and  _258
REMARK  104  A    between atoms: _258  and  _259
REMARK  105  A    between atoms: _258  and  _261
REMARK  106  A    between atoms: _261  and  _262
REMARK  107  A    between atoms: _262  and  _263
REMARK  108  A    between atoms: _263  and  _264
REMARK  109  A    between atoms: _264  and  _265
REMARK  110  A    between atoms: _269  and  _271
REMARK  111  A    between atoms: _271  and  _272
REMARK  112  A    between atoms: _271  and  _274
REMARK  113  A    between atoms: _274  and  _275
REMARK  114  A    between atoms: _281  and  _283
REMARK  115  A    between atoms: _283  and  _284
REMARK  116  A    between atoms: _286  and  _288
REMARK  117  A    between atoms: _288  and  _289
REMARK  118  A    between atoms: _288  and  _291
REMARK  119  A    between atoms: _291  and  _292
REMARK  120  A    between atoms: _295  and  _297
REMARK  121  A    between atoms: _297  and  _298
REMARK  122  A    between atoms: _297  and  _300
REMARK  123  A    between atoms: _300  and  _301
REMARK  124  A    between atoms: _304  and  _306
REMARK  125  A    between atoms: _306  and  _307
REMARK  126  A    between atoms: _306  and  _309
REMARK  127  A    between atoms: _309  and  _310
REMARK  128  A    between atoms: _310  and  _311
REMARK  129  A    between atoms: _313  and  _315
REMARK  130  A    between atoms: _315  and  _316
REMARK  131  A    between atoms: _319  and  _321
REMARK  132  A    between atoms: _321  and  _322
REMARK  133  A    between atoms: _321  and  _324
REMARK  134  A    between atoms: _324  and  _325
REMARK  135  A    between atoms: _328  and  _330
REMARK  136  A    between atoms: _330  and  _331
REMARK  137  A    between atoms: _330  and  _333
REMARK  138  A    between atoms: _333  and  _334
REMARK  139  A    between atoms: _336  and  _338
REMARK  140  A    between atoms: _338  and  _339
REMARK  141  A    between atoms: _338  and  _341
REMARK  142  A    between atoms: _344  and  _346
REMARK  143  A    between atoms: _346  and  _347
REMARK  144  A    between atoms: _346  and  _349
REMARK  145  A    between atoms: _349  and  _350
REMARK  146  A    between atoms: _350  and  _351
REMARK  147  A    between atoms: _351  and  _352
REMARK  148  A    between atoms: _361  and  _363
REMARK  149  A    between atoms: _363  and  _364
REMARK  150  A    between atoms: _363  and  _366
REMARK  151  A    between atoms: _366  and  _367
REMARK  152  A    between atoms: _367  and  _368
REMARK  153  A    between atoms: _368  and  _369
REMARK  154  A    between atoms: _378  and  _380
REMARK  155  A    between atoms: _380  and  _381
REMARK  156  A    between atoms: _380  and  _383
REMARK  157  A    between atoms: _383  and  _384
REMARK  158  A    between atoms: _389  and  _390
REMARK  159  A    between atoms: _392  and  _394
REMARK  160  A    between atoms: _394  and  _395
REMARK  161  A    between atoms: _394  and  _397
REMARK  162  A    between atoms: _397  and  _398
REMARK  163  A    between atoms: _398  and  _399
REMARK  164  A    between atoms: _404  and  _406
REMARK  165  A    between atoms: _406  and  _407
REMARK  166  A    between atoms: _406  and  _409
REMARK  167  A    between atoms: _409  and  _410
REMARK  168  A    between atoms: _413  and  _415
REMARK  169  A    between atoms: _415  and  _416
REMARK  170  A    between atoms: _415  and  _418
REMARK  171  A    between atoms: _421  and  _423
REMARK  172  A    between atoms: _423  and  _424
REMARK  173  A    between atoms: _423  and  _426
REMARK  174  A    between atoms: _426  and  _427
REMARK  175  A    between atoms: _430  and  _432
REMARK  176  A    between atoms: _432  and  _433
REMARK  177  A    between atoms: _432  and  _435
REMARK  178  A    between atoms: _435  and  _436
REMARK  179  A    between atoms: _439  and  _441
REMARK  180  A    between atoms: _441  and  _442
REMARK  181  A    between atoms: _444  and  _446
REMARK  182  A    between atoms: _446  and  _447
REMARK  183  A    between atoms: _446  and  _449
REMARK  184  A    between atoms: _449  and  _450
REMARK  185  A    between atoms: _453  and  _455
REMARK  186  A    between atoms: _455  and  _456
REMARK  187  A    between atoms: _455  and  _458
REMARK  188  A    between atoms: _458  and  _459
REMARK  189  A    between atoms: _461  and  _463
REMARK  190  A    between atoms: _463  and  _464
REMARK  191  A    between atoms: _463  and  _466
REMARK  192  A    between atoms: _466  and  _467
REMARK  193  A    between atoms: _470  and  _472
REMARK  194  A    between atoms: _472  and  _473
REMARK  195  A    between atoms: _472  and  _475
REMARK  196  A    between atoms: _475  and  _476
REMARK  197  A    between atoms: _476  and  _477
REMARK  198  A    between atoms: _479  and  _481
REMARK  199  A    between atoms: _481  and  _482
REMARK  200  A    between atoms: _481  and  _484
REMARK  201  A    between atoms: _487  and  _489
REMARK  202  A    between atoms: _489  and  _490
REMARK  203  A    between atoms: _489  and  _492
REMARK  204  A    between atoms: _492  and  _493
REMARK  205  A    between atoms: _496  and  _498
REMARK  206  A    between atoms: _498  and  _499
REMARK  207  A    between atoms: _498  and  _501
REMARK  208  A    between atoms: _501  and  _502
REMARK  209  A    between atoms: _502  and  _503
REMARK  210  A    between atoms: _508  and  _510
REMARK  211  A    between atoms: _510  and  _511
REMARK  212  A    between atoms: _510  and  _513
REMARK  213  A    between atoms: _513  and  _514
REMARK  214  A    between atoms: _514  and  _515
REMARK  215  A    between atoms: _518  and  _520
REMARK  216  A    between atoms: _520  and  _521
REMARK  217  A    between atoms: _520  and  _523
REMARK  218  A    between atoms: _523  and  _524
REMARK  219  A    between atoms: _527  and  _529
REMARK  220  A    between atoms: _529  and  _530
REMARK  221  A    between atoms: _529  and  _532
REMARK  222  A    between atoms: _535  and  _537
REMARK  223  A    between atoms: _537  and  _538
REMARK  224  A    between atoms: _537  and  _540
REMARK  225  A    between atoms: _540  and  _541
REMARK  226  A    between atoms: _544  and  _546
REMARK  227  A    between atoms: _546  and  _547
REMARK  228  A    between atoms: _546  and  _549
REMARK  229  A    between atoms: _549  and  _550
REMARK  230  A    between atoms: _552  and  _554
REMARK  231  A    between atoms: _554  and  _555
REMARK  232  A    between atoms: _554  and  _557
REMARK  233  A    between atoms: _557  and  _558
REMARK  234  A    between atoms: _558  and  _559
REMARK  235  A    between atoms: _561  and  _563
REMARK  236  A    between atoms: _563  and  _564
REMARK  237  A    between atoms: _563  and  _566
REMARK  238  A    between atoms: _566  and  _567
REMARK  239  A    between atoms: _567  and  _568
REMARK  240  A    between atoms: _570  and  _572
REMARK  241  A    between atoms: _572  and  _573
REMARK  242  A    between atoms: _572  and  _575
REMARK  243  A    between atoms: _575  and  _576
REMARK  244  A    between atoms: _579  and  _581
REMARK  245  A    between atoms: _581  and  _582
REMARK  246  A    between atoms: _581  and  _584
REMARK  247  A    between atoms: _584  and  _585
REMARK  248  A    between atoms: _589  and  _590
REMARK  249  A    between atoms: _595  and  _597
REMARK  250  A    between atoms: _597  and  _598
REMARK  251  A    between atoms: _597  and  _600
REMARK  252  A    between atoms: _600  and  _601
REMARK  253  A    between atoms: _603  and  _605
REMARK  254  A    between atoms: _605  and  _606
REMARK  255  A    between atoms: _608  and  _610
REMARK  256  A    between atoms: _610  and  _611
REMARK  257  A    between atoms: _610  and  _613
REMARK  258  A    between atoms: _613  and  _614
REMARK  259  A    between atoms: _617  and  _619
REMARK  260  A    between atoms: _619  and  _620
REMARK  261  A    between atoms: _619  and  _622
REMARK  262  A    between atoms: _622  and  _623
REMARK  263  A    between atoms: _626  and  _628
REMARK  264  A    between atoms: _628  and  _629
REMARK  265  A    between atoms: _631  and  _633
REMARK  266  A    between atoms: _633  and  _634
REMARK  267  A    between atoms: _633  and  _636
REMARK  268  A    between atoms: _636  and  _637
REMARK                            x       y       z     vdW  Elec       q    Type
REMARK                         _______ _______ _______ _____ _____    ______ ____
ROOT
ATOM      1  O   HOH     1      13.123 100.100  15.209  0.00  0.00    +0.000 OA
ENDROOT
TORSDOF 0
REMARK  Name = ../refined-set-2016/1lyb/1lyb_pocket.pdb
REMARK  268 active torsions:
REMARK  status: ('A' for Active; 'I' for Inactive)
REMARK    1  A    between atoms: _1  and  _3
REMARK    2  A    between atoms: _3  and  _4
REMARK    3  A    between atoms: _3  and  _6
REMARK    4  A    between atoms: _6  and  _7
REMARK    5  A    between atoms: _7  and  _8
REMARK    6  A    between atoms: _10  and  _12
REMARK    7  A    between atoms: _12  and  _13
REMARK    8  A    between atoms: _12  and  _15
REMARK    9  A    between atoms: _15  and  _16
REMARK   10  A    between atoms: _19  and  _21
REMARK   11  A    between atoms: _21  and  _22
REMARK   12  A    between atoms: _25  and  _27
REMARK   13  A    between atoms: _27  and  _28
REMARK   14  A    between atoms: _27  and  _30
REMARK   15  A    between atoms: _30  and  _31
REMARK   16  A    between atoms: _31  and  _32
REMARK   17  A    between atoms: _37  and  _39
REMARK   18  A    between atoms: _39  and  _40
REMARK   19  A    between atoms: _39  and  _42
REMARK   20  A    between atoms: _42  and  _43
REMARK   21  A    between atoms: _48  and  _49
REMARK   22  A    between atoms: _51  and  _53
REMARK   23  A    between atoms: _53  and  _54
REMARK   24  A    between atoms: _53  and  _56
REMARK   25  A    between atoms: _59  and  _61
REMARK   26  A    between atoms: _61  and  _62
REMARK   27  A    between atoms: _61  and  _64
REMARK   28  A    between atoms: _67  and  _69
REMARK   29  A    between atoms: _69  and  _70
REMARK   30  A    between atoms: _69  and  _72
REMARK   31  A    between atoms: _72  and  _73
REMARK   32  A    between atoms: _79  and  _81
REMARK   33  A    between atoms: _81  and  _82
REMARK   34  A    between atoms: _81  and  _84
REMARK   35  A    between atoms: _84  and  _85
REMARK   36  A    between atoms: _88  and  _90
REMARK   37  A    between atoms: _90  and  _91
REMARK   38  A    between atoms: _90  and  _93
REMARK   39  A    between atoms: _93  and  _94
REMARK   40  A    between atoms: _97  and  _99
REMARK   41  A    between atoms: _99  and  _100
REMARK   42  A    between atoms: _102  and  _104
REMARK   43  A    between atoms: _104  and  _105
REMARK   44  A    between atoms: _104  and  _107
REMARK   45  A    between atoms: _107  and  _108
REMARK   46  A    between atoms: _110  and  _112
REMARK   47  A    between atoms: _112  and  _113
REMARK   48  A    between atoms: _112  and  _115
REMARK   49  A    between atoms: _115  and  _116
REMARK   50  A    between atoms: _118  and  _120
REMARK   51  A    between atoms: _120  and  _121
REMARK   52  A    between atoms: _120  and  _123
REMARK   53  A    between atoms: _123  and  _124
REMARK   54  A    between atoms: _129  and  _131
REMARK   55  A    between atoms: _131  and  _132
REMARK   56  A    between atoms: _131  and  _134
REMARK   57  A    between atoms: _134  and  _135
REMARK   58  A    between atoms: _145  and  _147
REMARK   59  A    between atoms: _147  and  _148
REMARK   60  A    between atoms: _147  and  _150
REMARK   61  A    between atoms: _150  and  _151
REMARK   62  A    between atoms: _154  and  _156
REMARK   63  A    between atoms: _156  and  _157
REMARK   64  A    between atoms: _156  and  _159
REMARK   65  A    between atoms: _159  and  _160
REMARK   66  A    between atoms: _163  and  _165
REMARK   67  A    between atoms: _165  and  _166
REMARK   68  A    between atoms: _165  and  _168
REMARK   69  A    between atoms: _168  and  _169
REMARK   70  A    between atoms: _174  and  _176
REMARK   71  A    between atoms: _176  and  _177
REMARK   72  A    between atoms: _176  and  _179
REMARK   73  A    between atoms: _179  and  _180
REMARK   74  A    between atoms: _185  and  _186
REMARK   75  A    between atoms: _188  and  _190
REMARK   76  A    between atoms: _190  and  _191
REMARK   77  A    between atoms: _193  and  _195
REMARK   78  A    between atoms: _195  and  _196
REMARK   79  A    between atoms: _195  and  _198
REMARK   80  A    between atoms: _198  and  _199
REMARK   81  A    between atoms: _201  and  _203
REMARK   82  A    between atoms: _203  and  _204
REMARK   83  A    between atoms: _206  and  _208
REMARK   84  A    between atoms: _208  and  _209
REMARK   85  A    between atoms: _208  and  _211
REMARK   86  A    between atoms: _211  and  _212
REMARK   87  A    between atoms: _214  and  _216
REMARK   88  A    between atoms: _216  and  _217
REMARK   89  A    between atoms: _216  and  _219
REMARK   90  A    between atoms: _219  and  _220
REMARK   91  A    between atoms: _223  and  _225
REMARK   92  A    between atoms: _225  and  _226
REMARK   93  A    between atoms: _225  and  _228
REMARK   94  A    between atoms: _228  and  _229
REMARK   95  A    between atoms: _232  and  _234
REMARK   96  A    between atoms: _234  and  _235
REMARK   97  A    between atoms: _234  and  _237
REMARK   98  A    between atoms: _237  and  _238
REMARK   99  A    between atoms: _244  and  _246
REMARK  100  A    between atoms: _246  and  _247
REMARK  101  A    between atoms: _250  and  _252
REMARK  102  A    between atoms: _252  and  _253
REMARK  103  A    between atoms: _256  and  _258
REMARK  104  A    between atoms: _258  and  _259
REMARK  105  A    between atoms: _258  and  _261
REMARK  106  A    between atoms: _261  and  _262
REMARK  107  A    between atoms: _262  and  _263
REMARK  108  A    between atoms: _263  and  _264
REMARK  109  A    between atoms: _264  and  _265
REMARK  110  A    between atoms: _269  and  _271
REMARK  111  A    between atoms: _271  and  _272
REMARK  112  A    between atoms: _271  and  _274
REMARK  113  A    between atoms: _274  and  _275
REMARK  114  A    between atoms: _281  and  _283
REMARK  115  A    between atoms: _283  and  _284
REMARK  116  A    between atoms: _286  and  _288
REMARK  117  A    between atoms: _288  and  _289
REMARK  118  A    between atoms: _288  and  _291
REMARK  119  A    between atoms: _291  and  _292
REMARK  120  A    between atoms: _295  and  _297
REMARK  121  A    between atoms: _297  and  _298
REMARK  122  A    between atoms: _297  and  _300
REMARK  123  A    between atoms: _300  and  _301
REMARK  124  A    between atoms: _304  and  _306
REMARK  125  A    between atoms: _306  and  _307
REMARK  126  A    between atoms: _306  and  _309
REMARK  127  A    between atoms: _309  and  _310
REMARK  128  A    between atoms: _310  and  _311
REMARK  129  A    between atoms: _313  and  _315
REMARK  130  A    between atoms: _315  and  _316
REMARK  131  A    between atoms: _319  and  _321
REMARK  132  A    between atoms: _321  and  _322
REMARK  133  A    between atoms: _321  and  _324
REMARK  134  A    between atoms: _324  and  _325
REMARK  135  A    between atoms: _328  and  _330
REMARK  136  A    between atoms: _330  and  _331
REMARK  137  A    between atoms: _330  and  _333
REMARK  138  A    between atoms: _333  and  _334
REMARK  139  A    between atoms: _336  and  _338
REMARK  140  A    between atoms: _338  and  _339
REMARK  141  A    between atoms: _338  and  _341
REMARK  142  A    between atoms: _344  and  _346
REMARK  143  A    between atoms: _346  and  _347
REMARK  144  A    between atoms: _346  and  _349
REMARK  145  A    between atoms: _349  and  _350
REMARK  146  A    between atoms: _350  and  _351
REMARK  147  A    between atoms: _351  and  _352
REMARK  148  A    between atoms: _361  and  _363
REMARK  149  A    between atoms: _363  and  _364
REMARK  150  A    between atoms: _363  and  _366
REMARK  151  A    between atoms: _366  and  _367
REMARK  152  A    between atoms: _367  and  _368
REMARK  153  A    between atoms: _368  and  _369
REMARK  154  A    between atoms: _378  and  _380
REMARK  155  A    between atoms: _380  and  _381
REMARK  156  A    between atoms: _380  and  _383
REMARK  157  A    between atoms: _383  and  _384
REMARK  158  A    between atoms: _389  and  _390
REMARK  159  A    between atoms: _392  and  _394
REMARK  160  A    between atoms: _394  and  _395
REMARK  161  A    between atoms: _394  and  _397
REMARK  162  A    between atoms: _397  and  _398
REMARK  163  A    between atoms: _398  and  _399
REMARK  164  A    between atoms: _404  and  _406
REMARK  165  A    between atoms: _406  and  _407
REMARK  166  A    between atoms: _406  and  _409
REMARK  167  A    between atoms: _409  and  _410
REMARK  168  A    between atoms: _413  and  _415
REMARK  169  A    between atoms: _415  and  _416
REMARK  170  A    between atoms: _415  and  _418
REMARK  171  A    between atoms: _421  and  _423
REMARK  172  A    between atoms: _423  and  _424
REMARK  173  A    between atoms: _423  and  _426
REMARK  174  A    between atoms: _426  and  _427
REMARK  175  A    between atoms: _430  and  _432
REMARK  176  A    between atoms: _432  and  _433
REMARK  177  A    between atoms: _432  and  _435
REMARK  178  A    between atoms: _435  and  _436
REMARK  179  A    between atoms: _439  and  _441
REMARK  180  A    between atoms: _441  and  _442
REMARK  181  A    between atoms: _444  and  _446
REMARK  182  A    between atoms: _446  and  _447
REMARK  183  A    between atoms: _446  and  _449
REMARK  184  A    between atoms: _449  and  _450
REMARK  185  A    between atoms: _453  and  _455
REMARK  186  A    between atoms: _455  and  _456
REMARK  187  A    between atoms: _455  and  _458
REMARK  188  A    between atoms: _458  and  _459
REMARK  189  A    between atoms: _461  and  _463
REMARK  190  A    between atoms: _463  and  _464
REMARK  191  A    between atoms: _463  and  _466
REMARK  192  A    between atoms: _466  and  _467
REMARK  193  A    between atoms: _470  and  _472
REMARK  194  A    between atoms: _472  and  _473
REMARK  195  A    between atoms: _472  and  _475
REMARK  196  A    between atoms: _475  and  _476
REMARK  197  A    between atoms: _476  and  _477
REMARK  198  A    between atoms: _479  and  _481
REMARK  199  A    between atoms: _481  and  _482
REMARK  200  A    between atoms: _481  and  _484
REMARK  201  A    between atoms: _487  and  _489
REMARK  202  A    between atoms: _489  and  _490
REMARK  203  A    between atoms: _489  and  _492
REMARK  204  A    between atoms: _492  and  _493
REMARK  205  A    between atoms: _496  and  _498
REMARK  206  A    between atoms: _498  and  _499
REMARK  207  A    between atoms: _498  and  _501
REMARK  208  A    between atoms: _501  and  _502
REMARK  209  A    between atoms: _502  and  _503
REMARK  210  A    between atoms: _508  and  _510
REMARK  211  A    between atoms: _510  and  _511
REMARK  212  A    between atoms: _510  and  _513
REMARK  213  A    between atoms: _513  and  _514
REMARK  214  A    between atoms: _514  and  _515
REMARK  215  A    between atoms: _518  and  _520
REMARK  216  A    between atoms: _520  and  _521
REMARK  217  A    between atoms: _520  and  _523
REMARK  218  A    between atoms: _523  and  _524
REMARK  219  A    between atoms: _527  and  _529
REMARK  220  A    between atoms: _529  and  _530
REMARK  221  A    between atoms: _529  and  _532
REMARK  222  A    between atoms: _535  and  _537
REMARK  223  A    between atoms: _537  and  _538
REMARK  224  A    between atoms: _537  and  _540
REMARK  225  A    between atoms: _540  and  _541
REMARK  226  A    between atoms: _544  and  _546
REMARK  227  A    between atoms: _546  and  _547
REMARK  228  A    between atoms: _546  and  _549
REMARK  229  A    between atoms: _549  and  _550
REMARK  230  A    between atoms: _552  and  _554
REMARK  231  A    between atoms: _554  and  _555
REMARK  232  A    between atoms: _554  and  _557
REMARK  233  A    between atoms: _557  and  _558
REMARK  234  A    between atoms: _558  and  _559
REMARK  235  A    between atoms: _561  and  _563
REMARK  236  A    between atoms: _563  and  _564
REMARK  237  A    between atoms: _563  and  _566
REMARK  238  A    between atoms: _566  and  _567
REMARK  239  A    between atoms: _567  and  _568
REMARK  240  A    between atoms: _570  and  _572
REMARK  241  A    between atoms: _572  and  _573
REMARK  242  A    between atoms: _572  and  _575
REMARK  243  A    between atoms: _575  and  _576
REMARK  244  A    between atoms: _579  and  _581
REMARK  245  A    between atoms: _581  and  _582
REMARK  246  A    between atoms: _581  and  _584
REMARK  247  A    between atoms: _584  and  _585
REMARK  248  A    between atoms: _589  and  _590
REMARK  249  A    between atoms: _595  and  _597
REMARK  250  A    between atoms: _597  and  _598
REMARK  251  A    between atoms: _597  and  _600
REMARK  252  A    between atoms: _600  and  _601
REMARK  253  A    between atoms: _603  and  _605
REMARK  254  A    between atoms: _605  and  _606
REMARK  255  A    between atoms: _608  and  _610
REMARK  256  A    between atoms: _610  and  _611
REMARK  257  A    between atoms: _610  and  _613
REMARK  258  A    between atoms: _613  and  _614
REMARK  259  A    between atoms: _617  and  _619
REMARK  260  A    between atoms: _619  and  _620
REMARK  261  A    between atoms: _619  and  _622
REMARK  262  A    between atoms: _622  and  _623
REMARK  263  A    between atoms: _626  and  _628
REMARK  264  A    between atoms: _628  and  _629
REMARK  265  A    between atoms: _631  and  _633
REMARK  266  A    between atoms: _633  and  _634
REMARK  267  A    between atoms: _633  and  _636
REMARK  268  A    between atoms: _636  and  _637
REMARK                            x       y       z     vdW  Elec       q    Type
REMARK                         _______ _______ _______ _____ _____    ______ ____
ROOT
ATOM      1  O   HOH     1      22.073  96.841  19.110  0.00  0.00    +0.000 OA
ENDROOT
TORSDOF 0
REMARK  Name = ../refined-set-2016/1lyb/1lyb_pocket.pdb
REMARK  268 active torsions:
REMARK  status: ('A' for Active; 'I' for Inactive)
REMARK    1  A    between atoms: _1  and  _3
REMARK    2  A    between atoms: _3  and  _4
REMARK    3  A    between atoms: _3  and  _6
REMARK    4  A    between atoms: _6  and  _7
REMARK    5  A    between atoms: _7  and  _8
REMARK    6  A    between atoms: _10  and  _12
REMARK    7  A    between atoms: _12  and  _13
REMARK    8  A    between atoms: _12  and  _15
REMARK    9  A    between atoms: _15  and  _16
REMARK   10  A    between atoms: _19  and  _21
REMARK   11  A    between atoms: _21  and  _22
REMARK   12  A    between atoms: _25  and  _27
REMARK   13  A    between atoms: _27  and  _28
REMARK   14  A    between atoms: _27  and  _30
REMARK   15  A    between atoms: _30  and  _31
REMARK   16  A    between atoms: _31  and  _32
REMARK   17  A    between atoms: _37  and  _39
REMARK   18  A    between atoms: _39  and  _40
REMARK   19  A    between atoms: _39  and  _42
REMARK   20  A    between atoms: _42  and  _43
REMARK   21  A    between atoms: _48  and  _49
REMARK   22  A    between atoms: _51  and  _53
REMARK   23  A    between atoms: _53  and  _54
REMARK   24  A    between atoms: _53  and  _56
REMARK   25  A    between atoms: _59  and  _61
REMARK   26  A    between atoms: _61  and  _62
REMARK   27  A    between atoms: _61  and  _64
REMARK   28  A    between atoms: _67  and  _69
REMARK   29  A    between atoms: _69  and  _70
REMARK   30  A    between atoms: _69  and  _72
REMARK   31  A    between atoms: _72  and  _73
REMARK   32  A    between atoms: _79  and  _81
REMARK   33  A    between atoms: _81  and  _82
REMARK   34  A    between atoms: _81  and  _84
REMARK   35  A    between atoms: _84  and  _85
REMARK   36  A    between atoms: _88  and  _90
REMARK   37  A    between atoms: _90  and  _91
REMARK   38  A    between atoms: _90  and  _93
REMARK   39  A    between atoms: _93  and  _94
REMARK   40  A    between atoms: _97  and  _99
REMARK   41  A    between atoms: _99  and  _100
REMARK   42  A    between atoms: _102  and  _104
REMARK   43  A    between atoms: _104  and  _105
REMARK   44  A    between atoms: _104  and  _107
REMARK   45  A    between atoms: _107  and  _108
REMARK   46  A    between atoms: _110  and  _112
REMARK   47  A    between atoms: _112  and  _113
REMARK   48  A    between atoms: _112  and  _115
REMARK   49  A    between atoms: _115  and  _116
REMARK   50  A    between atoms: _118  and  _120
REMARK   51  A    between atoms: _120  and  _121
REMARK   52  A    between atoms: _120  and  _123
REMARK   53  A    between atoms: _123  and  _124
REMARK   54  A    between atoms: _129  and  _131
REMARK   55  A    between atoms: _131  and  _132
REMARK   56  A    between atoms: _131  and  _134
REMARK   57  A    between atoms: _134  and  _135
REMARK   58  A    between atoms: _145  and  _147
REMARK   59  A    between atoms: _147  and  _148
REMARK   60  A    between atoms: _147  and  _150
REMARK   61  A    between atoms: _150  and  _151
REMARK   62  A    between atoms: _154  and  _156
REMARK   63  A    between atoms: _156  and  _157
REMARK   64  A    between atoms: _156  and  _159
REMARK   65  A    between atoms: _159  and  _160
REMARK   66  A    between atoms: _163  and  _165
REMARK   67  A    between atoms: _165  and  _166
REMARK   68  A    between atoms: _165  and  _168
REMARK   69  A    between atoms: _168  and  _169
REMARK   70  A    between atoms: _174  and  _176
REMARK   71  A    between atoms: _176  and  _177
REMARK   72  A    between atoms: _176  and  _179
REMARK   73  A    between atoms: _179  and  _180
REMARK   74  A    between atoms: _185  and  _186
REMARK   75  A    between atoms: _188  and  _190
REMARK   76  A    between atoms: _190  and  _191
REMARK   77  A    between atoms: _193  and  _195
REMARK   78  A    between atoms: _195  and  _196
REMARK   79  A    between atoms: _195  and  _198
REMARK   80  A    between atoms: _198  and  _199
REMARK   81  A    between atoms: _201  and  _203
REMARK   82  A    between atoms: _203  and  _204
REMARK   83  A    between atoms: _206  and  _208
REMARK   84  A    between atoms: _208  and  _209
REMARK   85  A    between atoms: _208  and  _211
REMARK   86  A    between atoms: _211  and  _212
REMARK   87  A    between atoms: _214  and  _216
REMARK   88  A    between atoms: _216  and  _217
REMARK   89  A    between atoms: _216  and  _219
REMARK   90  A    between atoms: _219  and  _220
REMARK   91  A    between atoms: _223  and  _225
REMARK   92  A    between atoms: _225  and  _226
REMARK   93  A    between atoms: _225  and  _228
REMARK   94  A    between atoms: _228  and  _229
REMARK   95  A    between atoms: _232  and  _234
REMARK   96  A    between atoms: _234  and  _235
REMARK   97  A    between atoms: _234  and  _237
REMARK   98  A    between atoms: _237  and  _238
REMARK   99  A    between atoms: _244  and  _246
REMARK  100  A    between atoms: _246  and  _247
REMARK  101  A    between atoms: _250  and  _252
REMARK  102  A    between atoms: _252  and  _253
REMARK  103  A    between atoms: _256  and  _258
REMARK  104  A    between atoms: _258  and  _259
REMARK  105  A    between atoms: _258  and  _261
REMARK  106  A    between atoms: _261  and  _262
REMARK  107  A    between atoms: _262  and  _263
REMARK  108  A    between atoms: _263  and  _264
REMARK  109  A    between atoms: _264  and  _265
REMARK  110  A    between atoms: _269  and  _271
REMARK  111  A    between atoms: _271  and  _272
REMARK  112  A    between atoms: _271  and  _274
REMARK  113  A    between atoms: _274  and  _275
REMARK  114  A    between atoms: _281  and  _283
REMARK  115  A    between atoms: _283  and  _284
REMARK  116  A    between atoms: _286  and  _288
REMARK  117  A    between atoms: _288  and  _289
REMARK  118  A    between atoms: _288  and  _291
REMARK  119  A    between atoms: _291  and  _292
REMARK  120  A    between atoms: _295  and  _297
REMARK  121  A    between atoms: _297  and  _298
REMARK  122  A    between atoms: _297  and  _300
REMARK  123  A    between atoms: _300  and  _301
REMARK  124  A    between atoms: _304  and  _306
REMARK  125  A    between atoms: _306  and  _307
REMARK  126  A    between atoms: _306  and  _309
REMARK  127  A    between atoms: _309  and  _310
REMARK  128  A    between atoms: _310  and  _311
REMARK  129  A    between atoms: _313  and  _315
REMARK  130  A    between atoms: _315  and  _316
REMARK  131  A    between atoms: _319  and  _321
REMARK  132  A    between atoms: _321  and  _322
REMARK  133  A    between atoms: _321  and  _324
REMARK  134  A    between atoms: _324  and  _325
REMARK  135  A    between atoms: _328  and  _330
REMARK  136  A    between atoms: _330  and  _331
REMARK  137  A    between atoms: _330  and  _333
REMARK  138  A    between atoms: _333  and  _334
REMARK  139  A    between atoms: _336  and  _338
REMARK  140  A    between atoms: _338  and  _339
REMARK  141  A    between atoms: _338  and  _341
REMARK  142  A    between atoms: _344  and  _346
REMARK  143  A    between atoms: _346  and  _347
REMARK  144  A    between atoms: _346  and  _349
REMARK  145  A    between atoms: _349  and  _350
REMARK  146  A    between atoms: _350  and  _351
REMARK  147  A    between atoms: _351  and  _352
REMARK  148  A    between atoms: _361  and  _363
REMARK  149  A    between atoms: _363  and  _364
REMARK  150  A    between atoms: _363  and  _366
REMARK  151  A    between atoms: _366  and  _367
REMARK  152  A    between atoms: _367  and  _368
REMARK  153  A    between atoms: _368  and  _369
REMARK  154  A    between atoms: _378  and  _380
REMARK  155  A    between atoms: _380  and  _381
REMARK  156  A    between atoms: _380  and  _383
REMARK  157  A    between atoms: _383  and  _384
REMARK  158  A    between atoms: _389  and  _390
REMARK  159  A    between atoms: _392  and  _394
REMARK  160  A    between atoms: _394  and  _395
REMARK  161  A    between atoms: _394  and  _397
REMARK  162  A    between atoms: _397  and  _398
REMARK  163  A    between atoms: _398  and  _399
REMARK  164  A    between atoms: _404  and  _406
REMARK  165  A    between atoms: _406  and  _407
REMARK  166  A    between atoms: _406  and  _409
REMARK  167  A    between atoms: _409  and  _410
REMARK  168  A    between atoms: _413  and  _415
REMARK  169  A    between atoms: _415  and  _416
REMARK  170  A    between atoms: _415  and  _418
REMARK  171  A    between atoms: _421  and  _423
REMARK  172  A    between atoms: _423  and  _424
REMARK  173  A    between atoms: _423  and  _426
REMARK  174  A    between atoms: _426  and  _427
REMARK  175  A    between atoms: _430  and  _432
REMARK  176  A    between atoms: _432  and  _433
REMARK  177  A    between atoms: _432  and  _435
REMARK  178  A    between atoms: _435  and  _436
REMARK  179  A    between atoms: _439  and  _441
REMARK  180  A    between atoms: _441  and  _442
REMARK  181  A    between atoms: _444  and  _446
REMARK  182  A    between atoms: _446  and  _447
REMARK  183  A    between atoms: _446  and  _449
REMARK  184  A    between atoms: _449  and  _450
REMARK  185  A    between atoms: _453  and  _455
REMARK  186  A    between atoms: _455  and  _456
REMARK  187  A    between atoms: _455  and  _458
REMARK  188  A    between atoms: _458  and  _459
REMARK  189  A    between atoms: _461  and  _463
REMARK  190  A    between atoms: _463  and  _464
REMARK  191  A    between atoms: _463  and  _466
REMARK  192  A    between atoms: _466  and  _467
REMARK  193  A    between atoms: _470  and  _472
REMARK  194  A    between atoms: _472  and  _473
REMARK  195  A    between atoms: _472  and  _475
REMARK  196  A    between atoms: _475  and  _476
REMARK  197  A    between atoms: _476  and  _477
REMARK  198  A    between atoms: _479  and  _481
REMARK  199  A    between atoms: _481  and  _482
REMARK  200  A    between atoms: _481  and  _484
REMARK  201  A    between atoms: _487  and  _489
REMARK  202  A    between atoms: _489  and  _490
REMARK  203  A    between atoms: _489  and  _492
REMARK  204  A    between atoms: _492  and  _493
REMARK  205  A    between atoms: _496  and  _498
REMARK  206  A    between atoms: _498  and  _499
REMARK  207  A    between atoms: _498  and  _501
REMARK  208  A    between atoms: _501  and  _502
REMARK  209  A    between atoms: _502  and  _503
REMARK  210  A    between atoms: _508  and  _510
REMARK  211  A    between atoms: _510  and  _511
REMARK  212  A    between atoms: _510  and  _513
REMARK  213  A    between atoms: _513  and  _514
REMARK  214  A    between atoms: _514  and  _515
REMARK  215  A    between atoms: _518  and  _520
REMARK  216  A    between atoms: _520  and  _521
REMARK  217  A    between atoms: _520  and  _523
REMARK  218  A    between atoms: _523  and  _524
REMARK  219  A    between atoms: _527  and  _529
REMARK  220  A    between atoms: _529  and  _530
REMARK  221  A    between atoms: _529  and  _532
REMARK  222  A    between atoms: _535  and  _537
REMARK  223  A    between atoms: _537  and  _538
REMARK  224  A    between atoms: _537  and  _540
REMARK  225  A    between atoms: _540  and  _541
REMARK  226  A    between atoms: _544  and  _546
REMARK  227  A    between atoms: _546  and  _547
REMARK  228  A    between atoms: _546  and  _549
REMARK  229  A    between atoms: _549  and  _550
REMARK  230  A    between atoms: _552  and  _554
REMARK  231  A    between atoms: _554  and  _555
REMARK  232  A    between atoms: _554  and  _557
REMARK  233  A    between atoms: _557  and  _558
REMARK  234  A    between atoms: _558  and  _559
REMARK  235  A    between atoms: _561  and  _563
REMARK  236  A    between atoms: _563  and  _564
REMARK  237  A    between atoms: _563  and  _566
REMARK  238  A    between atoms: _566  and  _567
REMARK  239  A    between atoms: _567  and  _568
REMARK  240  A    between atoms: _570  and  _572
REMARK  241  A    between atoms: _572  and  _573
REMARK  242  A    between atoms: _572  and  _575
REMARK  243  A    between atoms: _575  and  _576
REMARK  244  A    between atoms: _579  and  _581
REMARK  245  A    between atoms: _581  and  _582
REMARK  246  A    between atoms: _581  and  _584
REMARK  247  A    between atoms: _584  and  _585
REMARK  248  A    between atoms: _589  and  _590
REMARK  249  A    between atoms: _595  and  _597
REMARK  250  A    between atoms: _597  and  _598
REMARK  251  A    between atoms: _597  and  _600
REMARK  252  A    between atoms: _600  and  _601
REMARK  253  A    between atoms: _603  and  _605
REMARK  254  A    between atoms: _605  and  _606
REMARK  255  A    between atoms: _608  and  _610
REMARK  256  A    between atoms: _610  and  _611
REMARK  257  A    between atoms: _610  and  _613
REMARK  258  A    between atoms: _613  and  _614
REMARK  259  A    between atoms: _617  and  _619
REMARK  260  A    between atoms: _619  and  _620
REMARK  261  A    between atoms: _619  and  _622
REMARK  262  A    between atoms: _622  and  _623
REMARK  263  A    between atoms: _626  and  _628
REMARK  264  A    between atoms: _628  and  _629
REMARK  265  A    between atoms: _631  and  _633
REMARK  266  A    between atoms: _633  and  _634
REMARK  267  A    between atoms: _633  and  _636
REMARK  268  A    between atoms: _636  and  _637
REMARK                            x       y       z     vdW  Elec       q    Type
REMARK                         _______ _______ _______ _____ _____    ______ ____
ROOT
ATOM      1  O   HOH     1      12.195  96.479  14.086  0.00  0.00    +0.000 OA
ENDROOT
TORSDOF 0
REMARK  Name = ../refined-set-2016/1lyb/1lyb_pocket.pdb
REMARK  268 active torsions:
REMARK  status: ('A' for Active; 'I' for Inactive)
REMARK    1  A    between atoms: _1  and  _3
REMARK    2  A    between atoms: _3  and  _4
REMARK    3  A    between atoms: _3  and  _6
REMARK    4  A    between atoms: _6  and  _7
REMARK    5  A    between atoms: _7  and  _8
REMARK    6  A    between atoms: _10  and  _12
REMARK    7  A    between atoms: _12  and  _13
REMARK    8  A    between atoms: _12  and  _15
REMARK    9  A    between atoms: _15  and  _16
REMARK   10  A    between atoms: _19  and  _21
REMARK   11  A    between atoms: _21  and  _22
REMARK   12  A    between atoms: _25  and  _27
REMARK   13  A    between atoms: _27  and  _28
REMARK   14  A    between atoms: _27  and  _30
REMARK   15  A    between atoms: _30  and  _31
REMARK   16  A    between atoms: _31  and  _32
REMARK   17  A    between atoms: _37  and  _39
REMARK   18  A    between atoms: _39  and  _40
REMARK   19  A    between atoms: _39  and  _42
REMARK   20  A    between atoms: _42  and  _43
REMARK   21  A    between atoms: _48  and  _49
REMARK   22  A    between atoms: _51  and  _53
REMARK   23  A    between atoms: _53  and  _54
REMARK   24  A    between atoms: _53  and  _56
REMARK   25  A    between atoms: _59  and  _61
REMARK   26  A    between atoms: _61  and  _62
REMARK   27  A    between atoms: _61  and  _64
REMARK   28  A    between atoms: _67  and  _69
REMARK   29  A    between atoms: _69  and  _70
REMARK   30  A    between atoms: _69  and  _72
REMARK   31  A    between atoms: _72  and  _73
REMARK   32  A    between atoms: _79  and  _81
REMARK   33  A    between atoms: _81  and  _82
REMARK   34  A    between atoms: _81  and  _84
REMARK   35  A    between atoms: _84  and  _85
REMARK   36  A    between atoms: _88  and  _90
REMARK   37  A    between atoms: _90  and  _91
REMARK   38  A    between atoms: _90  and  _93
REMARK   39  A    between atoms: _93  and  _94
REMARK   40  A    between atoms: _97  and  _99
REMARK   41  A    between atoms: _99  and  _100
REMARK   42  A    between atoms: _102  and  _104
REMARK   43  A    between atoms: _104  and  _105
REMARK   44  A    between atoms: _104  and  _107
REMARK   45  A    between atoms: _107  and  _108
REMARK   46  A    between atoms: _110  and  _112
REMARK   47  A    between atoms: _112  and  _113
REMARK   48  A    between atoms: _112  and  _115
REMARK   49  A    between atoms: _115  and  _116
REMARK   50  A    between atoms: _118  and  _120
REMARK   51  A    between atoms: _120  and  _121
REMARK   52  A    between atoms: _120  and  _123
REMARK   53  A    between atoms: _123  and  _124
REMARK   54  A    between atoms: _129  and  _131
REMARK   55  A    between atoms: _131  and  _132
REMARK   56  A    between atoms: _131  and  _134
REMARK   57  A    between atoms: _134  and  _135
REMARK   58  A    between atoms: _145  and  _147
REMARK   59  A    between atoms: _147  and  _148
REMARK   60  A    between atoms: _147  and  _150
REMARK   61  A    between atoms: _150  and  _151
REMARK   62  A    between atoms: _154  and  _156
REMARK   63  A    between atoms: _156  and  _157
REMARK   64  A    between atoms: _156  and  _159
REMARK   65  A    between atoms: _159  and  _160
REMARK   66  A    between atoms: _163  and  _165
REMARK   67  A    between atoms: _165  and  _166
REMARK   68  A    between atoms: _165  and  _168
REMARK   69  A    between atoms: _168  and  _169
REMARK   70  A    between atoms: _174  and  _176
REMARK   71  A    between atoms: _176  and  _177
REMARK   72  A    between atoms: _176  and  _179
REMARK   73  A    between atoms: _179  and  _180
REMARK   74  A    between atoms: _185  and  _186
REMARK   75  A    between atoms: _188  and  _190
REMARK   76  A    between atoms: _190  and  _191
REMARK   77  A    between atoms: _193  and  _195
REMARK   78  A    between atoms: _195  and  _196
REMARK   79  A    between atoms: _195  and  _198
REMARK   80  A    between atoms: _198  and  _199
REMARK   81  A    between atoms: _201  and  _203
REMARK   82  A    between atoms: _203  and  _204
REMARK   83  A    between atoms: _206  and  _208
REMARK   84  A    between atoms: _208  and  _209
REMARK   85  A    between atoms: _208  and  _211
REMARK   86  A    between atoms: _211  and  _212
REMARK   87  A    between atoms: _214  and  _216
REMARK   88  A    between atoms: _216  and  _217
REMARK   89  A    between atoms: _216  and  _219
REMARK   90  A    between atoms: _219  and  _220
REMARK   91  A    between atoms: _223  and  _225
REMARK   92  A    between atoms: _225  and  _226
REMARK   93  A    between atoms: _225  and  _228
REMARK   94  A    between atoms: _228  and  _229
REMARK   95  A    between atoms: _232  and  _234
REMARK   96  A    between atoms: _234  and  _235
REMARK   97  A    between atoms: _234  and  _237
REMARK   98  A    between atoms: _237  and  _238
REMARK   99  A    between atoms: _244  and  _246
REMARK  100  A    between atoms: _246  and  _247
REMARK  101  A    between atoms: _250  and  _252
REMARK  102  A    between atoms: _252  and  _253
REMARK  103  A    between atoms: _256  and  _258
REMARK  104  A    between atoms: _258  and  _259
REMARK  105  A    between atoms: _258  and  _261
REMARK  106  A    between atoms: _261  and  _262
REMARK  107  A    between atoms: _262  and  _263
REMARK  108  A    between atoms: _263  and  _264
REMARK  109  A    between atoms: _264  and  _265
REMARK  110  A    between atoms: _269  and  _271
REMARK  111  A    between atoms: _271  and  _272
REMARK  112  A    between atoms: _271  and  _274
REMARK  113  A    between atoms: _274  and  _275
REMARK  114  A    between atoms: _281  and  _283
REMARK  115  A    between atoms: _283  and  _284
REMARK  116  A    between atoms: _286  and  _288
REMARK  117  A    between atoms: _288  and  _289
REMARK  118  A    between atoms: _288  and  _291
REMARK  119  A    between atoms: _291  and  _292
REMARK  120  A    between atoms: _295  and  _297
REMARK  121  A    between atoms: _297  and  _298
REMARK  122  A    between atoms: _297  and  _300
REMARK  123  A    between atoms: _300  and  _301
REMARK  124  A    between atoms: _304  and  _306
REMARK  125  A    between atoms: _306  and  _307
REMARK  126  A    between atoms: _306  and  _309
REMARK  127  A    between atoms: _309  and  _310
REMARK  128  A    between atoms: _310  and  _311
REMARK  129  A    between atoms: _313  and  _315
REMARK  130  A    between atoms: _315  and  _316
REMARK  131  A    between atoms: _319  and  _321
REMARK  132  A    between atoms: _321  and  _322
REMARK  133  A    between atoms: _321  and  _324
REMARK  134  A    between atoms: _324  and  _325
REMARK  135  A    between atoms: _328  and  _330
REMARK  136  A    between atoms: _330  and  _331
REMARK  137  A    between atoms: _330  and  _333
REMARK  138  A    between atoms: _333  and  _334
REMARK  139  A    between atoms: _336  and  _338
REMARK  140  A    between atoms: _338  and  _339
REMARK  141  A    between atoms: _338  and  _341
REMARK  142  A    between atoms: _344  and  _346
REMARK  143  A    between atoms: _346  and  _347
REMARK  144  A    between atoms: _346  and  _349
REMARK  145  A    between atoms: _349  and  _350
REMARK  146  A    between atoms: _350  and  _351
REMARK  147  A    between atoms: _351  and  _352
REMARK  148  A    between atoms: _361  and  _363
REMARK  149  A    between atoms: _363  and  _364
REMARK  150  A    between atoms: _363  and  _366
REMARK  151  A    between atoms: _366  and  _367
REMARK  152  A    between atoms: _367  and  _368
REMARK  153  A    between atoms: _368  and  _369
REMARK  154  A    between atoms: _378  and  _380
REMARK  155  A    between atoms: _380  and  _381
REMARK  156  A    between atoms: _380  and  _383
REMARK  157  A    between atoms: _383  and  _384
REMARK  158  A    between atoms: _389  and  _390
REMARK  159  A    between atoms: _392  and  _394
REMARK  160  A    between atoms: _394  and  _395
REMARK  161  A    between atoms: _394  and  _397
REMARK  162  A    between atoms: _397  and  _398
REMARK  163  A    between atoms: _398  and  _399
REMARK  164  A    between atoms: _404  and  _406
REMARK  165  A    between atoms: _406  and  _407
REMARK  166  A    between atoms: _406  and  _409
REMARK  167  A    between atoms: _409  and  _410
REMARK  168  A    between atoms: _413  and  _415
REMARK  169  A    between atoms: _415  and  _416
REMARK  170  A    between atoms: _415  and  _418
REMARK  171  A    between atoms: _421  and  _423
REMARK  172  A    between atoms: _423  and  _424
REMARK  173  A    between atoms: _423  and  _426
REMARK  174  A    between atoms: _426  and  _427
REMARK  175  A    between atoms: _430  and  _432
REMARK  176  A    between atoms: _432  and  _433
REMARK  177  A    between atoms: _432  and  _435
REMARK  178  A    between atoms: _435  and  _436
REMARK  179  A    between atoms: _439  and  _441
REMARK  180  A    between atoms: _441  and  _442
REMARK  181  A    between atoms: _444  and  _446
REMARK  182  A    between atoms: _446  and  _447
REMARK  183  A    between atoms: _446  and  _449
REMARK  184  A    between atoms: _449  and  _450
REMARK  185  A    between atoms: _453  and  _455
REMARK  186  A    between atoms: _455  and  _456
REMARK  187  A    between atoms: _455  and  _458
REMARK  188  A    between atoms: _458  and  _459
REMARK  189  A    between atoms: _461  and  _463
REMARK  190  A    between atoms: _463  and  _464
REMARK  191  A    between atoms: _463  and  _466
REMARK  192  A    between atoms: _466  and  _467
REMARK  193  A    between atoms: _470  and  _472
REMARK  194  A    between atoms: _472  and  _473
REMARK  195  A    between atoms: _472  and  _475
REMARK  196  A    between atoms: _475  and  _476
REMARK  197  A    between atoms: _476  and  _477
REMARK  198  A    between atoms: _479  and  _481
REMARK  199  A    between atoms: _481  and  _482
REMARK  200  A    between atoms: _481  and  _484
REMARK  201  A    between atoms: _487  and  _489
REMARK  202  A    between atoms: _489  and  _490
REMARK  203  A    between atoms: _489  and  _492
REMARK  204  A    between atoms: _492  and  _493
REMARK  205  A    between atoms: _496  and  _498
REMARK  206  A    between atoms: _498  and  _499
REMARK  207  A    between atoms: _498  and  _501
REMARK  208  A    between atoms: _501  and  _502
REMARK  209  A    between atoms: _502  and  _503
REMARK  210  A    between atoms: _508  and  _510
REMARK  211  A    between atoms: _510  and  _511
REMARK  212  A    between atoms: _510  and  _513
REMARK  213  A    between atoms: _513  and  _514
REMARK  214  A    between atoms: _514  and  _515
REMARK  215  A    between atoms: _518  and  _520
REMARK  216  A    between atoms: _520  and  _521
REMARK  217  A    between atoms: _520  and  _523
REMARK  218  A    between atoms: _523  and  _524
REMARK  219  A    between atoms: _527  and  _529
REMARK  220  A    between atoms: _529  and  _530
REMARK  221  A    between atoms: _529  and  _532
REMARK  222  A    between atoms: _535  and  _537
REMARK  223  A    between atoms: _537  and  _538
REMARK  224  A    between atoms: _537  and  _540
REMARK  225  A    between atoms: _540  and  _541
REMARK  226  A    between atoms: _544  and  _546
REMARK  227  A    between atoms: _546  and  _547
REMARK  228  A    between atoms: _546  and  _549
REMARK  229  A    between atoms: _549  and  _550
REMARK  230  A    between atoms: _552  and  _554
REMARK  231  A    between atoms: _554  and  _555
REMARK  232  A    between atoms: _554  and  _557
REMARK  233  A    between atoms: _557  and  _558
REMARK  234  A    between atoms: _558  and  _559
REMARK  235  A    between atoms: _561  and  _563
REMARK  236  A    between atoms: _563  and  _564
REMARK  237  A    between atoms: _563  and  _566
REMARK  238  A    between atoms: _566  and  _567
REMARK  239  A    between atoms: _567  and  _568
REMARK  240  A    between atoms: _570  and  _572
REMARK  241  A    between atoms: _572  and  _573
REMARK  242  A    between atoms: _572  and  _575
REMARK  243  A    between atoms: _575  and  _576
REMARK  244  A    between atoms: _579  and  _581
REMARK  245  A    between atoms: _581  and  _582
REMARK  246  A    between atoms: _581  and  _584
REMARK  247  A    between atoms: _584  and  _585
REMARK  248  A    between atoms: _589  and  _590
REMARK  249  A    between atoms: _595  and  _597
REMARK  250  A    between atoms: _597  and  _598
REMARK  251  A    between atoms: _597  and  _600
REMARK  252  A    between atoms: _600  and  _601
REMARK  253  A    between atoms: _603  and  _605
REMARK  254  A    between atoms: _605  and  _606
REMARK  255  A    between atoms: _608  and  _610
REMARK  256  A    between atoms: _610  and  _611
REMARK  257  A    between atoms: _610  and  _613
REMARK  258  A    between atoms: _613  and  _614
REMARK  259  A    between atoms: _617  and  _619
REMARK  260  A    between atoms: _619  and  _620
REMARK  261  A    between atoms: _619  and  _622
REMARK  262  A    between atoms: _622  and  _623
REMARK  263  A    between atoms: _626  and  _628
REMARK  264  A    between atoms: _628  and  _629
REMARK  265  A    between atoms: _631  and  _633
REMARK  266  A    between atoms: _633  and  _634
REMARK  267  A    between atoms: _633  and  _636
REMARK  268  A    between atoms: _636  and  _637
REMARK                            x       y       z     vdW  Elec       q    Type
REMARK                         _______ _______ _______ _____ _____    ______ ____
ROOT
ATOM      1  O   HOH     1      32.341  89.919   3.506  0.00  0.00    +0.000 OA
ENDROOT
TORSDOF 0
