REMARK  Name = ../refined-set-2016/1z71/1z71_pocket.pdb
REMARK  235 active torsions:
REMARK  status: ('A' for Active; 'I' for Inactive)
REMARK    1  A    between atoms: _1  and  _5
REMARK    2  A    between atoms: _5  and  _6
REMARK    3  A    between atoms: _5  and  _8
REMARK    4  A    between atoms: _8  and  _9
REMARK    5  A    between atoms: _12  and  _14
REMARK    6  A    between atoms: _14  and  _15
REMARK    7  A    between atoms: _14  and  _17
REMARK    8  A    between atoms: _20  and  _22
REMARK    9  A    between atoms: _22  and  _23
REMARK   10  A    between atoms: _22  and  _25
REMARK   11  A    between atoms: _25  and  _26
REMARK   12  A    between atoms: _26  and  _61
REMARK   13  A    between atoms: _27  and  _29
REMARK   14  A    between atoms: _29  and  _30
REMARK   15  A    between atoms: _32  and  _34
REMARK   16  A    between atoms: _34  and  _35
REMARK   17  A    between atoms: _38  and  _40
REMARK   18  A    between atoms: _40  and  _41
REMARK   19  A    between atoms: _44  and  _46
REMARK   20  A    between atoms: _46  and  _47
REMARK   21  A    between atoms: _46  and  _49
REMARK   22  A    between atoms: _49  and  _50
REMARK   23  A    between atoms: _55  and  _57
REMARK   24  A    between atoms: _57  and  _58
REMARK   25  A    between atoms: _57  and  _60
REMARK   26  A    between atoms: _60  and  _61
REMARK   27  A    between atoms: _62  and  _64
REMARK   28  A    between atoms: _64  and  _65
REMARK   29  A    between atoms: _64  and  _67
REMARK   30  A    between atoms: _67  and  _68
REMARK   31  A    between atoms: _71  and  _73
REMARK   32  A    between atoms: _73  and  _74
REMARK   33  A    between atoms: _73  and  _76
REMARK   34  A    between atoms: _76  and  _77
REMARK   35  A    between atoms: _82  and  _83
REMARK   36  A    between atoms: _86  and  _87
REMARK   37  A    between atoms: _92  and  _94
REMARK   38  A    between atoms: _94  and  _95
REMARK   39  A    between atoms: _94  and  _97
REMARK   40  A    between atoms: _97  and  _98
REMARK   41  A    between atoms: _108  and  _110
REMARK   42  A    between atoms: _110  and  _111
REMARK   43  A    between atoms: _110  and  _113
REMARK   44  A    between atoms: _113  and  _114
REMARK   45  A    between atoms: _114  and  _115
REMARK   46  A    between atoms: _115  and  _116
REMARK   47  A    between atoms: _116  and  _117
REMARK   48  A    between atoms: _121  and  _123
REMARK   49  A    between atoms: _123  and  _124
REMARK   50  A    between atoms: _123  and  _126
REMARK   51  A    between atoms: _126  and  _127
REMARK   52  A    between atoms: _132  and  _133
REMARK   53  A    between atoms: _135  and  _137
REMARK   54  A    between atoms: _137  and  _138
REMARK   55  A    between atoms: _137  and  _140
REMARK   56  A    between atoms: _140  and  _141
REMARK   57  A    between atoms: _146  and  _148
REMARK   58  A    between atoms: _148  and  _149
REMARK   59  A    between atoms: _148  and  _151
REMARK   60  A    between atoms: _151  and  _152
REMARK   61  A    between atoms: _162  and  _164
REMARK   62  A    between atoms: _164  and  _165
REMARK   63  A    between atoms: _164  and  _167
REMARK   64  A    between atoms: _167  and  _168
REMARK   65  A    between atoms: _168  and  _169
REMARK   66  A    between atoms: _169  and  _170
REMARK   67  A    between atoms: _179  and  _181
REMARK   68  A    between atoms: _181  and  _182
REMARK   69  A    between atoms: _181  and  _184
REMARK   70  A    between atoms: _184  and  _185
REMARK   71  A    between atoms: _185  and  _186
REMARK   72  A    between atoms: _189  and  _191
REMARK   73  A    between atoms: _191  and  _192
REMARK   74  A    between atoms: _191  and  _194
REMARK   75  A    between atoms: _194  and  _195
REMARK   76  A    between atoms: _200  and  _202
REMARK   77  A    between atoms: _202  and  _203
REMARK   78  A    between atoms: _202  and  _205
REMARK   79  A    between atoms: _205  and  _206
REMARK   80  A    between atoms: _209  and  _211
REMARK   81  A    between atoms: _211  and  _212
REMARK   82  A    between atoms: _211  and  _214
REMARK   83  A    between atoms: _214  and  _215
REMARK   84  A    between atoms: _218  and  _220
REMARK   85  A    between atoms: _220  and  _221
REMARK   86  A    between atoms: _220  and  _223
REMARK   87  A    between atoms: _223  and  _224
REMARK   88  A    between atoms: _227  and  _229
REMARK   89  A    between atoms: _229  and  _230
REMARK   90  A    between atoms: _229  and  _232
REMARK   91  A    between atoms: _235  and  _237
REMARK   92  A    between atoms: _237  and  _238
REMARK   93  A    between atoms: _240  and  _242
REMARK   94  A    between atoms: _242  and  _243
REMARK   95  A    between atoms: _242  and  _245
REMARK   96  A    between atoms: _245  and  _246
REMARK   97  A    between atoms: _251  and  _253
REMARK   98  A    between atoms: _253  and  _254
REMARK   99  A    between atoms: _253  and  _256
REMARK  100  A    between atoms: _256  and  _257
REMARK  101  A    between atoms: _260  and  _262
REMARK  102  A    between atoms: _262  and  _263
REMARK  103  A    between atoms: _262  and  _265
REMARK  104  A    between atoms: _265  and  _266
REMARK  105  A    between atoms: _269  and  _271
REMARK  106  A    between atoms: _271  and  _272
REMARK  107  A    between atoms: _271  and  _274
REMARK  108  A    between atoms: _274  and  _275
REMARK  109  A    between atoms: _275  and  _276
REMARK  110  A    between atoms: _276  and  _277
REMARK  111  A    between atoms: _286  and  _288
REMARK  112  A    between atoms: _288  and  _289
REMARK  113  A    between atoms: _288  and  _291
REMARK  114  A    between atoms: _291  and  _292
REMARK  115  A    between atoms: _295  and  _297
REMARK  116  A    between atoms: _297  and  _298
REMARK  117  A    between atoms: _297  and  _300
REMARK  118  A    between atoms: _300  and  _301
REMARK  119  A    between atoms: _301  and  _302
REMARK  120  A    between atoms: _302  and  _303
REMARK  121  A    between atoms: _312  and  _314
REMARK  122  A    between atoms: _314  and  _315
REMARK  123  A    between atoms: _314  and  _317
REMARK  124  A    between atoms: _317  and  _318
REMARK  125  A    between atoms: _318  and  _319
REMARK  126  A    between atoms: _321  and  _323
REMARK  127  A    between atoms: _323  and  _324
REMARK  128  A    between atoms: _323  and  _326
REMARK  129  A    between atoms: _326  and  _327
REMARK  130  A    between atoms: _333  and  _335
REMARK  131  A    between atoms: _335  and  _336
REMARK  132  A    between atoms: _335  and  _338
REMARK  133  A    between atoms: _340  and  _342
REMARK  134  A    between atoms: _342  and  _343
REMARK  135  A    between atoms: _346  and  _348
REMARK  136  A    between atoms: _348  and  _349
REMARK  137  A    between atoms: _351  and  _353
REMARK  138  A    between atoms: _353  and  _354
REMARK  139  A    between atoms: _353  and  _356
REMARK  140  A    between atoms: _356  and  _357
REMARK  141  A    between atoms: _360  and  _362
REMARK  142  A    between atoms: _362  and  _363
REMARK  143  A    between atoms: _366  and  _368
REMARK  144  A    between atoms: _368  and  _369
REMARK  145  A    between atoms: _368  and  _371
REMARK  146  A    between atoms: _371  and  _372
REMARK  147  A    between atoms: _372  and  _494
REMARK  148  A    between atoms: _373  and  _375
REMARK  149  A    between atoms: _375  and  _376
REMARK  150  A    between atoms: _375  and  _378
REMARK  151  A    between atoms: _378  and  _379
REMARK  152  A    between atoms: _379  and  _380
REMARK  153  A    between atoms: _383  and  _385
REMARK  154  A    between atoms: _385  and  _386
REMARK  155  A    between atoms: _388  and  _390
REMARK  156  A    between atoms: _390  and  _391
REMARK  157  A    between atoms: _390  and  _393
REMARK  158  A    between atoms: _393  and  _394
REMARK  159  A    between atoms: _397  and  _399
REMARK  160  A    between atoms: _399  and  _400
REMARK  161  A    between atoms: _399  and  _402
REMARK  162  A    between atoms: _402  and  _403
REMARK  163  A    between atoms: _405  and  _407
REMARK  164  A    between atoms: _407  and  _408
REMARK  165  A    between atoms: _410  and  _412
REMARK  166  A    between atoms: _412  and  _413
REMARK  167  A    between atoms: _415  and  _417
REMARK  168  A    between atoms: _417  and  _418
REMARK  169  A    between atoms: _417  and  _420
REMARK  170  A    between atoms: _420  and  _421
REMARK  171  A    between atoms: _427  and  _429
REMARK  172  A    between atoms: _429  and  _430
REMARK  173  A    between atoms: _429  and  _432
REMARK  174  A    between atoms: _432  and  _433
REMARK  175  A    between atoms: _436  and  _438
REMARK  176  A    between atoms: _438  and  _439
REMARK  177  A    between atoms: _438  and  _441
REMARK  178  A    between atoms: _444  and  _446
REMARK  179  A    between atoms: _446  and  _447
REMARK  180  A    between atoms: _446  and  _449
REMARK  181  A    between atoms: _449  and  _450
REMARK  182  A    between atoms: _452  and  _454
REMARK  183  A    between atoms: _454  and  _455
REMARK  184  A    between atoms: _454  and  _457
REMARK  185  A    between atoms: _457  and  _458
REMARK  186  A    between atoms: _468  and  _470
REMARK  187  A    between atoms: _470  and  _471
REMARK  188  A    between atoms: _473  and  _475
REMARK  189  A    between atoms: _475  and  _476
REMARK  190  A    between atoms: _475  and  _478
REMARK  191  A    between atoms: _478  and  _479
REMARK  192  A    between atoms: _479  and  _480
REMARK  193  A    between atoms: _483  and  _485
REMARK  194  A    between atoms: _485  and  _486
REMARK  195  A    between atoms: _488  and  _490
REMARK  196  A    between atoms: _490  and  _491
REMARK  197  A    between atoms: _490  and  _493
REMARK  198  A    between atoms: _493  and  _494
REMARK  199  A    between atoms: _495  and  _497
REMARK  200  A    between atoms: _497  and  _498
REMARK  201  A    between atoms: _497  and  _500
REMARK  202  A    between atoms: _500  and  _501
REMARK  203  A    between atoms: _504  and  _506
REMARK  204  A    between atoms: _506  and  _507
REMARK  205  A    between atoms: _506  and  _509
REMARK  206  A    between atoms: _509  and  _510
REMARK  207  A    between atoms: _510  and  _511
REMARK  208  A    between atoms: _511  and  _512
REMARK  209  A    between atoms: _521  and  _523
REMARK  210  A    between atoms: _523  and  _524
REMARK  211  A    between atoms: _523  and  _526
REMARK  212  A    between atoms: _526  and  _527
REMARK  213  A    between atoms: _527  and  _528
REMARK  214  A    between atoms: _528  and  _529
REMARK  215  A    between atoms: _529  and  _530
REMARK  216  A    between atoms: _534  and  _536
REMARK  217  A    between atoms: _536  and  _537
REMARK  218  A    between atoms: _536  and  _539
REMARK  219  A    between atoms: _539  and  _540
REMARK  220  A    between atoms: _545  and  _546
REMARK  221  A    between atoms: _548  and  _550
REMARK  222  A    between atoms: _550  and  _551
REMARK  223  A    between atoms: _553  and  _555
REMARK  224  A    between atoms: _555  and  _556
REMARK  225  A    between atoms: _555  and  _558
REMARK  226  A    between atoms: _558  and  _559
REMARK  227  A    between atoms: _565  and  _567
REMARK  228  A    between atoms: _567  and  _568
REMARK  229  A    between atoms: _567  and  _570
REMARK  230  A    between atoms: _570  and  _571
REMARK  231  A    between atoms: _576  and  _577
REMARK  232  A    between atoms: _579  and  _581
REMARK  233  A    between atoms: _581  and  _582
REMARK  234  A    between atoms: _581  and  _584
REMARK  235  A    between atoms: _584  and  _585
REMARK                            x       y       z     vdW  Elec       q    Type
REMARK                         _______ _______ _______ _____ _____    ______ ____
ROOT
ATOM      1  C   ILE A   1       3.424 -10.047  19.177  0.00  0.00    +0.202 C 
ATOM      2  N   VAL A   2       3.478 -10.683  20.342  0.00  0.00    -0.301 N 
ATOM      3  H   VAL A   2       4.248 -10.457  21.004  0.00  0.00    +0.150 HD
ATOM      4  O   ILE A   1       2.556 -10.262  18.328  0.00  0.00    -0.277 OA
ENDROOT
BRANCH   1   5
ATOM      5  CA  ILE A   1       4.513  -9.016  18.924  0.00  0.00    +0.013 C 
BRANCH   5   6
ATOM      6  N   ILE A   1       5.187  -9.330  17.635  0.00  0.00    +0.387 N 
ATOM      7  H1  ILE A   1       5.608 -10.280  17.687  0.00  0.00    -0.089 HD
ATOM      8  H2  ILE A   1       5.933  -8.628  17.456  0.00  0.00    -0.089 HD
ATOM      9  H3  ILE A   1       4.489  -9.301  16.864  0.00  0.00    -0.089 HD
ENDBRANCH   5   6
BRANCH   5  10
ATOM     10  CB  ILE A   1       3.855  -7.613  18.894  0.00  0.00    -0.011 C 
ATOM     11  CG2 ILE A   1       3.192  -7.329  20.234  0.00  0.00    -0.002 C 
BRANCH  10  12
ATOM     12  CG1 ILE A   1       4.899  -6.533  18.580  0.00  0.00    -0.002 C 
ATOM     13  CD1 ILE A   1       5.922  -6.300  19.687  0.00  0.00    -0.000 C 
ENDBRANCH  10  12
ENDBRANCH   5  10
ENDBRANCH   1   5
BRANCH   2  14
ATOM     14  CA  VAL A   2       2.491 -11.689  20.722  0.00  0.00    +0.137 C 
BRANCH  14  15
ATOM     15  CB  VAL A   2       3.143 -12.850  21.513  0.00  0.00    +0.026 C 
ATOM     16  CG2 VAL A   2       2.078 -13.914  21.868  0.00  0.00    +0.002 C 
ATOM     17  CG1 VAL A   2       4.271 -13.465  20.699  0.00  0.00    +0.002 C 
ENDBRANCH  14  15
BRANCH  14  18
ATOM     18  C   VAL A   2       1.422 -11.054  21.609  0.00  0.00    +0.227 C 
ATOM     19  O   VAL A   2       1.735 -10.290  22.517  0.00  0.00    -0.286 OA
ENDBRANCH  14  18
ENDBRANCH   2  14
TORSDOF 7
REMARK  Name = ../refined-set-2016/1z71/1z71_pocket.pdb
REMARK  235 active torsions:
REMARK  status: ('A' for Active; 'I' for Inactive)
REMARK    1  A    between atoms: _1  and  _5
REMARK    2  A    between atoms: _5  and  _6
REMARK    3  A    between atoms: _5  and  _8
REMARK    4  A    between atoms: _8  and  _9
REMARK    5  A    between atoms: _12  and  _14
REMARK    6  A    between atoms: _14  and  _15
REMARK    7  A    between atoms: _14  and  _17
REMARK    8  A    between atoms: _20  and  _22
REMARK    9  A    between atoms: _22  and  _23
REMARK   10  A    between atoms: _22  and  _25
REMARK   11  A    between atoms: _25  and  _26
REMARK   12  A    between atoms: _26  and  _61
REMARK   13  A    between atoms: _27  and  _29
REMARK   14  A    between atoms: _29  and  _30
REMARK   15  A    between atoms: _32  and  _34
REMARK   16  A    between atoms: _34  and  _35
REMARK   17  A    between atoms: _38  and  _40
REMARK   18  A    between atoms: _40  and  _41
REMARK   19  A    between atoms: _44  and  _46
REMARK   20  A    between atoms: _46  and  _47
REMARK   21  A    between atoms: _46  and  _49
REMARK   22  A    between atoms: _49  and  _50
REMARK   23  A    between atoms: _55  and  _57
REMARK   24  A    between atoms: _57  and  _58
REMARK   25  A    between atoms: _57  and  _60
REMARK   26  A    between atoms: _60  and  _61
REMARK   27  A    between atoms: _62  and  _64
REMARK   28  A    between atoms: _64  and  _65
REMARK   29  A    between atoms: _64  and  _67
REMARK   30  A    between atoms: _67  and  _68
REMARK   31  A    between atoms: _71  and  _73
REMARK   32  A    between atoms: _73  and  _74
REMARK   33  A    between atoms: _73  and  _76
REMARK   34  A    between atoms: _76  and  _77
REMARK   35  A    between atoms: _82  and  _83
REMARK   36  A    between atoms: _86  and  _87
REMARK   37  A    between atoms: _92  and  _94
REMARK   38  A    between atoms: _94  and  _95
REMARK   39  A    between atoms: _94  and  _97
REMARK   40  A    between atoms: _97  and  _98
REMARK   41  A    between atoms: _108  and  _110
REMARK   42  A    between atoms: _110  and  _111
REMARK   43  A    between atoms: _110  and  _113
REMARK   44  A    between atoms: _113  and  _114
REMARK   45  A    between atoms: _114  and  _115
REMARK   46  A    between atoms: _115  and  _116
REMARK   47  A    between atoms: _116  and  _117
REMARK   48  A    between atoms: _121  and  _123
REMARK   49  A    between atoms: _123  and  _124
REMARK   50  A    between atoms: _123  and  _126
REMARK   51  A    between atoms: _126  and  _127
REMARK   52  A    between atoms: _132  and  _133
REMARK   53  A    between atoms: _135  and  _137
REMARK   54  A    between atoms: _137  and  _138
REMARK   55  A    between atoms: _137  and  _140
REMARK   56  A    between atoms: _140  and  _141
REMARK   57  A    between atoms: _146  and  _148
REMARK   58  A    between atoms: _148  and  _149
REMARK   59  A    between atoms: _148  and  _151
REMARK   60  A    between atoms: _151  and  _152
REMARK   61  A    between atoms: _162  and  _164
REMARK   62  A    between atoms: _164  and  _165
REMARK   63  A    between atoms: _164  and  _167
REMARK   64  A    between atoms: _167  and  _168
REMARK   65  A    between atoms: _168  and  _169
REMARK   66  A    between atoms: _169  and  _170
REMARK   67  A    between atoms: _179  and  _181
REMARK   68  A    between atoms: _181  and  _182
REMARK   69  A    between atoms: _181  and  _184
REMARK   70  A    between atoms: _184  and  _185
REMARK   71  A    between atoms: _185  and  _186
REMARK   72  A    between atoms: _189  and  _191
REMARK   73  A    between atoms: _191  and  _192
REMARK   74  A    between atoms: _191  and  _194
REMARK   75  A    between atoms: _194  and  _195
REMARK   76  A    between atoms: _200  and  _202
REMARK   77  A    between atoms: _202  and  _203
REMARK   78  A    between atoms: _202  and  _205
REMARK   79  A    between atoms: _205  and  _206
REMARK   80  A    between atoms: _209  and  _211
REMARK   81  A    between atoms: _211  and  _212
REMARK   82  A    between atoms: _211  and  _214
REMARK   83  A    between atoms: _214  and  _215
REMARK   84  A    between atoms: _218  and  _220
REMARK   85  A    between atoms: _220  and  _221
REMARK   86  A    between atoms: _220  and  _223
REMARK   87  A    between atoms: _223  and  _224
REMARK   88  A    between atoms: _227  and  _229
REMARK   89  A    between atoms: _229  and  _230
REMARK   90  A    between atoms: _229  and  _232
REMARK   91  A    between atoms: _235  and  _237
REMARK   92  A    between atoms: _237  and  _238
REMARK   93  A    between atoms: _240  and  _242
REMARK   94  A    between atoms: _242  and  _243
REMARK   95  A    between atoms: _242  and  _245
REMARK   96  A    between atoms: _245  and  _246
REMARK   97  A    between atoms: _251  and  _253
REMARK   98  A    between atoms: _253  and  _254
REMARK   99  A    between atoms: _253  and  _256
REMARK  100  A    between atoms: _256  and  _257
REMARK  101  A    between atoms: _260  and  _262
REMARK  102  A    between atoms: _262  and  _263
REMARK  103  A    between atoms: _262  and  _265
REMARK  104  A    between atoms: _265  and  _266
REMARK  105  A    between atoms: _269  and  _271
REMARK  106  A    between atoms: _271  and  _272
REMARK  107  A    between atoms: _271  and  _274
REMARK  108  A    between atoms: _274  and  _275
REMARK  109  A    between atoms: _275  and  _276
REMARK  110  A    between atoms: _276  and  _277
REMARK  111  A    between atoms: _286  and  _288
REMARK  112  A    between atoms: _288  and  _289
REMARK  113  A    between atoms: _288  and  _291
REMARK  114  A    between atoms: _291  and  _292
REMARK  115  A    between atoms: _295  and  _297
REMARK  116  A    between atoms: _297  and  _298
REMARK  117  A    between atoms: _297  and  _300
REMARK  118  A    between atoms: _300  and  _301
REMARK  119  A    between atoms: _301  and  _302
REMARK  120  A    between atoms: _302  and  _303
REMARK  121  A    between atoms: _312  and  _314
REMARK  122  A    between atoms: _314  and  _315
REMARK  123  A    between atoms: _314  and  _317
REMARK  124  A    between atoms: _317  and  _318
REMARK  125  A    between atoms: _318  and  _319
REMARK  126  A    between atoms: _321  and  _323
REMARK  127  A    between atoms: _323  and  _324
REMARK  128  A    between atoms: _323  and  _326
REMARK  129  A    between atoms: _326  and  _327
REMARK  130  A    between atoms: _333  and  _335
REMARK  131  A    between atoms: _335  and  _336
REMARK  132  A    between atoms: _335  and  _338
REMARK  133  A    between atoms: _340  and  _342
REMARK  134  A    between atoms: _342  and  _343
REMARK  135  A    between atoms: _346  and  _348
REMARK  136  A    between atoms: _348  and  _349
REMARK  137  A    between atoms: _351  and  _353
REMARK  138  A    between atoms: _353  and  _354
REMARK  139  A    between atoms: _353  and  _356
REMARK  140  A    between atoms: _356  and  _357
REMARK  141  A    between atoms: _360  and  _362
REMARK  142  A    between atoms: _362  and  _363
REMARK  143  A    between atoms: _366  and  _368
REMARK  144  A    between atoms: _368  and  _369
REMARK  145  A    between atoms: _368  and  _371
REMARK  146  A    between atoms: _371  and  _372
REMARK  147  A    between atoms: _372  and  _494
REMARK  148  A    between atoms: _373  and  _375
REMARK  149  A    between atoms: _375  and  _376
REMARK  150  A    between atoms: _375  and  _378
REMARK  151  A    between atoms: _378  and  _379
REMARK  152  A    between atoms: _379  and  _380
REMARK  153  A    between atoms: _383  and  _385
REMARK  154  A    between atoms: _385  and  _386
REMARK  155  A    between atoms: _388  and  _390
REMARK  156  A    between atoms: _390  and  _391
REMARK  157  A    between atoms: _390  and  _393
REMARK  158  A    between atoms: _393  and  _394
REMARK  159  A    between atoms: _397  and  _399
REMARK  160  A    between atoms: _399  and  _400
REMARK  161  A    between atoms: _399  and  _402
REMARK  162  A    between atoms: _402  and  _403
REMARK  163  A    between atoms: _405  and  _407
REMARK  164  A    between atoms: _407  and  _408
REMARK  165  A    between atoms: _410  and  _412
REMARK  166  A    between atoms: _412  and  _413
REMARK  167  A    between atoms: _415  and  _417
REMARK  168  A    between atoms: _417  and  _418
REMARK  169  A    between atoms: _417  and  _420
REMARK  170  A    between atoms: _420  and  _421
REMARK  171  A    between atoms: _427  and  _429
REMARK  172  A    between atoms: _429  and  _430
REMARK  173  A    between atoms: _429  and  _432
REMARK  174  A    between atoms: _432  and  _433
REMARK  175  A    between atoms: _436  and  _438
REMARK  176  A    between atoms: _438  and  _439
REMARK  177  A    between atoms: _438  and  _441
REMARK  178  A    between atoms: _444  and  _446
REMARK  179  A    between atoms: _446  and  _447
REMARK  180  A    between atoms: _446  and  _449
REMARK  181  A    between atoms: _449  and  _450
REMARK  182  A    between atoms: _452  and  _454
REMARK  183  A    between atoms: _454  and  _455
REMARK  184  A    between atoms: _454  and  _457
REMARK  185  A    between atoms: _457  and  _458
REMARK  186  A    between atoms: _468  and  _470
REMARK  187  A    between atoms: _470  and  _471
REMARK  188  A    between atoms: _473  and  _475
REMARK  189  A    between atoms: _475  and  _476
REMARK  190  A    between atoms: _475  and  _478
REMARK  191  A    between atoms: _478  and  _479
REMARK  192  A    between atoms: _479  and  _480
REMARK  193  A    between atoms: _483  and  _485
REMARK  194  A    between atoms: _485  and  _486
REMARK  195  A    between atoms: _488  and  _490
REMARK  196  A    between atoms: _490  and  _491
REMARK  197  A    between atoms: _490  and  _493
REMARK  198  A    between atoms: _493  and  _494
REMARK  199  A    between atoms: _495  and  _497
REMARK  200  A    between atoms: _497  and  _498
REMARK  201  A    between atoms: _497  and  _500
REMARK  202  A    between atoms: _500  and  _501
REMARK  203  A    between atoms: _504  and  _506
REMARK  204  A    between atoms: _506  and  _507
REMARK  205  A    between atoms: _506  and  _509
REMARK  206  A    between atoms: _509  and  _510
REMARK  207  A    between atoms: _510  and  _511
REMARK  208  A    between atoms: _511  and  _512
REMARK  209  A    between atoms: _521  and  _523
REMARK  210  A    between atoms: _523  and  _524
REMARK  211  A    between atoms: _523  and  _526
REMARK  212  A    between atoms: _526  and  _527
REMARK  213  A    between atoms: _527  and  _528
REMARK  214  A    between atoms: _528  and  _529
REMARK  215  A    between atoms: _529  and  _530
REMARK  216  A    between atoms: _534  and  _536
REMARK  217  A    between atoms: _536  and  _537
REMARK  218  A    between atoms: _536  and  _539
REMARK  219  A    between atoms: _539  and  _540
REMARK  220  A    between atoms: _545  and  _546
REMARK  221  A    between atoms: _548  and  _550
REMARK  222  A    between atoms: _550  and  _551
REMARK  223  A    between atoms: _553  and  _555
REMARK  224  A    between atoms: _555  and  _556
REMARK  225  A    between atoms: _555  and  _558
REMARK  226  A    between atoms: _558  and  _559
REMARK  227  A    between atoms: _565  and  _567
REMARK  228  A    between atoms: _567  and  _568
REMARK  229  A    between atoms: _567  and  _570
REMARK  230  A    between atoms: _570  and  _571
REMARK  231  A    between atoms: _576  and  _577
REMARK  232  A    between atoms: _579  and  _581
REMARK  233  A    between atoms: _581  and  _582
REMARK  234  A    between atoms: _581  and  _584
REMARK  235  A    between atoms: _584  and  _585
REMARK                            x       y       z     vdW  Elec       q    Type
REMARK                         _______ _______ _______ _____ _____    ______ ____
ROOT
ATOM      1  N   CYS A   4      21.019  -7.293  16.051  0.00  0.00    -0.297 N 
ATOM      2  H   CYS A   4      21.020  -6.459  16.673  0.00  0.00    +0.150 HD
ATOM      3  C   HIS A   3      21.669  -8.386  16.432  0.00  0.00    +0.241 C 
ATOM      4  O   HIS A   3      21.670  -9.427  15.769  0.00  0.00    -0.273 OA
ENDROOT
BRANCH   3   5
ATOM      5  CA  HIS A   3      22.422  -8.297  17.759  0.00  0.00    +0.155 C 
BRANCH   5   6
ATOM      6  N   HIS A   3      22.581  -6.934  18.265  0.00  0.00    -0.297 N 
ATOM      7  H   HIS A   3      22.119  -6.659  19.156  0.00  0.00    +0.150 HD
ATOM      8  C   GLY A   2      23.311  -6.039  17.598  0.00  0.00    +0.241 C 
ATOM      9  O   GLY A   2      23.849  -6.302  16.523  0.00  0.00    -0.273 OA
BRANCH   8  10
ATOM     10  CA  GLY A   2      23.463  -4.640  18.211  0.00  0.00    +0.149 C 
ATOM     11  CB  GLY A   2      24.611  -4.642  19.251  0.00  0.00    +0.031 C 
BRANCH  10  12
ATOM     12  N   GLY A   2      22.228  -4.175  18.832  0.00  0.00    -0.297 N 
ATOM     13  H   GLY A   2      22.232  -3.900  19.835  0.00  0.00    +0.150 HD
ATOM     14  C   ALA A   1      21.099  -4.097  18.137  0.00  0.00    +0.238 C 
ATOM     15  O   ALA A   1      21.036  -4.374  16.942  0.00  0.00    -0.274 OA
BRANCH  14  16
ATOM     16  CA  ALA A   1      19.861  -3.619  18.888  0.00  0.00    +0.145 C 
ATOM     17  CB  ALA A   1      18.973  -4.804  19.243  0.00  0.00    +0.028 C 
BRANCH  16  18
ATOM     18  N   ALA A   1      19.138  -2.690  18.028  0.00  0.00    -0.238 NA
ATOM     19  H   ALA A   1      18.422  -3.060  17.371  0.00  0.00    +0.142 HD
ENDBRANCH  16  18
ENDBRANCH  14  16
ENDBRANCH  10  12
ENDBRANCH   8  10
ENDBRANCH   5   6
BRANCH   5  20
ATOM     20  CB  HIS A   3      21.763  -9.209  18.809  0.00  0.00    +0.076 C 
BRANCH  20  21
ATOM     21  CG  HIS A   3      20.265  -9.189  18.806  0.00  0.00    +0.082 A 
ATOM     22  ND1 HIS A   3      19.529  -8.469  19.723  0.00  0.00    -0.227 NA
ATOM     23  CE1 HIS A   3      18.243  -8.684  19.519  0.00  0.00    +0.199 A 
ATOM     24  NE2 HIS A   3      18.114  -9.515  18.500  0.00  0.00    -0.221 NA
ATOM     25  CD2 HIS A   3      19.364  -9.843  18.034  0.00  0.00    +0.115 A 
ENDBRANCH  20  21
ENDBRANCH   5  20
ENDBRANCH   3   5
BRANCH   1  26
ATOM     26  CA  CYS A   4      20.305  -7.233  14.784  0.00  0.00    +0.149 C 
BRANCH  26  27
ATOM     27  C   CYS A   4      21.310  -7.195  13.633  0.00  0.00    +0.228 C 
ATOM     28  O   CYS A   4      21.009  -7.619  12.520  0.00  0.00    -0.286 OA
ENDBRANCH  26  27
BRANCH  26  29
ATOM     29  CB  CYS A   4      19.464  -5.964  14.721  0.00  0.00    +0.096 C 
BRANCH  29  30
ATOM     30  SG  CYS A   4      17.884  -6.068  15.598  0.00  0.00    -0.080 S 
BRANCH  30  31
ATOM     31  SG  ALA A   1      16.787  -7.157  14.273  0.00  0.00    -0.080 S 
BRANCH  31  32
ATOM     32  CB  ALA A   1      16.067  -5.849  13.243  0.00  0.00    +0.095 C 
BRANCH  32  33
ATOM     33  CA  ALA A   1      14.689  -6.128  12.645  0.00  0.00    +0.156 C 
BRANCH  33  34
ATOM     34  C   ALA A   1      13.875  -4.850  12.751  0.00  0.00    +0.239 C 
ATOM     35  N   GLY A   2      13.654  -4.420  13.986  0.00  0.00    -0.297 N 
ATOM     36  H   GLY A   2      13.998  -4.979  14.793  0.00  0.00    +0.150 HD
ATOM     37  O   ALA A   1      13.479  -4.261  11.751  0.00  0.00    -0.274 OA
BRANCH  35  38
ATOM     38  CA  GLY A   2      12.941  -3.183  14.228  0.00  0.00    +0.163 C 
BRANCH  38  39
ATOM     39  C   GLY A   2      14.021  -2.189  14.597  0.00  0.00    +0.229 C 
ATOM     40  O   GLY A   2      15.187  -2.565  14.785  0.00  0.00    -0.286 OA
ENDBRANCH  38  39
ENDBRANCH  35  38
ENDBRANCH  33  34
BRANCH  33  41
ATOM     41  N   ALA A   1      14.831  -6.528  11.254  0.00  0.00    -0.237 NA
ATOM     42  H   ALA A   1      14.460  -5.908  10.505  0.00  0.00    +0.142 HD
ENDBRANCH  33  41
ENDBRANCH  32  33
ENDBRANCH  31  32
ENDBRANCH  30  31
ENDBRANCH  29  30
ENDBRANCH  26  29
ENDBRANCH   1  26
TORSDOF 19
REMARK  Name = ../refined-set-2016/1z71/1z71_pocket.pdb
REMARK  235 active torsions:
REMARK  status: ('A' for Active; 'I' for Inactive)
REMARK    1  A    between atoms: _1  and  _5
REMARK    2  A    between atoms: _5  and  _6
REMARK    3  A    between atoms: _5  and  _8
REMARK    4  A    between atoms: _8  and  _9
REMARK    5  A    between atoms: _12  and  _14
REMARK    6  A    between atoms: _14  and  _15
REMARK    7  A    between atoms: _14  and  _17
REMARK    8  A    between atoms: _20  and  _22
REMARK    9  A    between atoms: _22  and  _23
REMARK   10  A    between atoms: _22  and  _25
REMARK   11  A    between atoms: _25  and  _26
REMARK   12  A    between atoms: _26  and  _61
REMARK   13  A    between atoms: _27  and  _29
REMARK   14  A    between atoms: _29  and  _30
REMARK   15  A    between atoms: _32  and  _34
REMARK   16  A    between atoms: _34  and  _35
REMARK   17  A    between atoms: _38  and  _40
REMARK   18  A    between atoms: _40  and  _41
REMARK   19  A    between atoms: _44  and  _46
REMARK   20  A    between atoms: _46  and  _47
REMARK   21  A    between atoms: _46  and  _49
REMARK   22  A    between atoms: _49  and  _50
REMARK   23  A    between atoms: _55  and  _57
REMARK   24  A    between atoms: _57  and  _58
REMARK   25  A    between atoms: _57  and  _60
REMARK   26  A    between atoms: _60  and  _61
REMARK   27  A    between atoms: _62  and  _64
REMARK   28  A    between atoms: _64  and  _65
REMARK   29  A    between atoms: _64  and  _67
REMARK   30  A    between atoms: _67  and  _68
REMARK   31  A    between atoms: _71  and  _73
REMARK   32  A    between atoms: _73  and  _74
REMARK   33  A    between atoms: _73  and  _76
REMARK   34  A    between atoms: _76  and  _77
REMARK   35  A    between atoms: _82  and  _83
REMARK   36  A    between atoms: _86  and  _87
REMARK   37  A    between atoms: _92  and  _94
REMARK   38  A    between atoms: _94  and  _95
REMARK   39  A    between atoms: _94  and  _97
REMARK   40  A    between atoms: _97  and  _98
REMARK   41  A    between atoms: _108  and  _110
REMARK   42  A    between atoms: _110  and  _111
REMARK   43  A    between atoms: _110  and  _113
REMARK   44  A    between atoms: _113  and  _114
REMARK   45  A    between atoms: _114  and  _115
REMARK   46  A    between atoms: _115  and  _116
REMARK   47  A    between atoms: _116  and  _117
REMARK   48  A    between atoms: _121  and  _123
REMARK   49  A    between atoms: _123  and  _124
REMARK   50  A    between atoms: _123  and  _126
REMARK   51  A    between atoms: _126  and  _127
REMARK   52  A    between atoms: _132  and  _133
REMARK   53  A    between atoms: _135  and  _137
REMARK   54  A    between atoms: _137  and  _138
REMARK   55  A    between atoms: _137  and  _140
REMARK   56  A    between atoms: _140  and  _141
REMARK   57  A    between atoms: _146  and  _148
REMARK   58  A    between atoms: _148  and  _149
REMARK   59  A    between atoms: _148  and  _151
REMARK   60  A    between atoms: _151  and  _152
REMARK   61  A    between atoms: _162  and  _164
REMARK   62  A    between atoms: _164  and  _165
REMARK   63  A    between atoms: _164  and  _167
REMARK   64  A    between atoms: _167  and  _168
REMARK   65  A    between atoms: _168  and  _169
REMARK   66  A    between atoms: _169  and  _170
REMARK   67  A    between atoms: _179  and  _181
REMARK   68  A    between atoms: _181  and  _182
REMARK   69  A    between atoms: _181  and  _184
REMARK   70  A    between atoms: _184  and  _185
REMARK   71  A    between atoms: _185  and  _186
REMARK   72  A    between atoms: _189  and  _191
REMARK   73  A    between atoms: _191  and  _192
REMARK   74  A    between atoms: _191  and  _194
REMARK   75  A    between atoms: _194  and  _195
REMARK   76  A    between atoms: _200  and  _202
REMARK   77  A    between atoms: _202  and  _203
REMARK   78  A    between atoms: _202  and  _205
REMARK   79  A    between atoms: _205  and  _206
REMARK   80  A    between atoms: _209  and  _211
REMARK   81  A    between atoms: _211  and  _212
REMARK   82  A    between atoms: _211  and  _214
REMARK   83  A    between atoms: _214  and  _215
REMARK   84  A    between atoms: _218  and  _220
REMARK   85  A    between atoms: _220  and  _221
REMARK   86  A    between atoms: _220  and  _223
REMARK   87  A    between atoms: _223  and  _224
REMARK   88  A    between atoms: _227  and  _229
REMARK   89  A    between atoms: _229  and  _230
REMARK   90  A    between atoms: _229  and  _232
REMARK   91  A    between atoms: _235  and  _237
REMARK   92  A    between atoms: _237  and  _238
REMARK   93  A    between atoms: _240  and  _242
REMARK   94  A    between atoms: _242  and  _243
REMARK   95  A    between atoms: _242  and  _245
REMARK   96  A    between atoms: _245  and  _246
REMARK   97  A    between atoms: _251  and  _253
REMARK   98  A    between atoms: _253  and  _254
REMARK   99  A    between atoms: _253  and  _256
REMARK  100  A    between atoms: _256  and  _257
REMARK  101  A    between atoms: _260  and  _262
REMARK  102  A    between atoms: _262  and  _263
REMARK  103  A    between atoms: _262  and  _265
REMARK  104  A    between atoms: _265  and  _266
REMARK  105  A    between atoms: _269  and  _271
REMARK  106  A    between atoms: _271  and  _272
REMARK  107  A    between atoms: _271  and  _274
REMARK  108  A    between atoms: _274  and  _275
REMARK  109  A    between atoms: _275  and  _276
REMARK  110  A    between atoms: _276  and  _277
REMARK  111  A    between atoms: _286  and  _288
REMARK  112  A    between atoms: _288  and  _289
REMARK  113  A    between atoms: _288  and  _291
REMARK  114  A    between atoms: _291  and  _292
REMARK  115  A    between atoms: _295  and  _297
REMARK  116  A    between atoms: _297  and  _298
REMARK  117  A    between atoms: _297  and  _300
REMARK  118  A    between atoms: _300  and  _301
REMARK  119  A    between atoms: _301  and  _302
REMARK  120  A    between atoms: _302  and  _303
REMARK  121  A    between atoms: _312  and  _314
REMARK  122  A    between atoms: _314  and  _315
REMARK  123  A    between atoms: _314  and  _317
REMARK  124  A    between atoms: _317  and  _318
REMARK  125  A    between atoms: _318  and  _319
REMARK  126  A    between atoms: _321  and  _323
REMARK  127  A    between atoms: _323  and  _324
REMARK  128  A    between atoms: _323  and  _326
REMARK  129  A    between atoms: _326  and  _327
REMARK  130  A    between atoms: _333  and  _335
REMARK  131  A    between atoms: _335  and  _336
REMARK  132  A    between atoms: _335  and  _338
REMARK  133  A    between atoms: _340  and  _342
REMARK  134  A    between atoms: _342  and  _343
REMARK  135  A    between atoms: _346  and  _348
REMARK  136  A    between atoms: _348  and  _349
REMARK  137  A    between atoms: _351  and  _353
REMARK  138  A    between atoms: _353  and  _354
REMARK  139  A    between atoms: _353  and  _356
REMARK  140  A    between atoms: _356  and  _357
REMARK  141  A    between atoms: _360  and  _362
REMARK  142  A    between atoms: _362  and  _363
REMARK  143  A    between atoms: _366  and  _368
REMARK  144  A    between atoms: _368  and  _369
REMARK  145  A    between atoms: _368  and  _371
REMARK  146  A    between atoms: _371  and  _372
REMARK  147  A    between atoms: _372  and  _494
REMARK  148  A    between atoms: _373  and  _375
REMARK  149  A    between atoms: _375  and  _376
REMARK  150  A    between atoms: _375  and  _378
REMARK  151  A    between atoms: _378  and  _379
REMARK  152  A    between atoms: _379  and  _380
REMARK  153  A    between atoms: _383  and  _385
REMARK  154  A    between atoms: _385  and  _386
REMARK  155  A    between atoms: _388  and  _390
REMARK  156  A    between atoms: _390  and  _391
REMARK  157  A    between atoms: _390  and  _393
REMARK  158  A    between atoms: _393  and  _394
REMARK  159  A    between atoms: _397  and  _399
REMARK  160  A    between atoms: _399  and  _400
REMARK  161  A    between atoms: _399  and  _402
REMARK  162  A    between atoms: _402  and  _403
REMARK  163  A    between atoms: _405  and  _407
REMARK  164  A    between atoms: _407  and  _408
REMARK  165  A    between atoms: _410  and  _412
REMARK  166  A    between atoms: _412  and  _413
REMARK  167  A    between atoms: _415  and  _417
REMARK  168  A    between atoms: _417  and  _418
REMARK  169  A    between atoms: _417  and  _420
REMARK  170  A    between atoms: _420  and  _421
REMARK  171  A    between atoms: _427  and  _429
REMARK  172  A    between atoms: _429  and  _430
REMARK  173  A    between atoms: _429  and  _432
REMARK  174  A    between atoms: _432  and  _433
REMARK  175  A    between atoms: _436  and  _438
REMARK  176  A    between atoms: _438  and  _439
REMARK  177  A    between atoms: _438  and  _441
REMARK  178  A    between atoms: _444  and  _446
REMARK  179  A    between atoms: _446  and  _447
REMARK  180  A    between atoms: _446  and  _449
REMARK  181  A    between atoms: _449  and  _450
REMARK  182  A    between atoms: _452  and  _454
REMARK  183  A    between atoms: _454  and  _455
REMARK  184  A    between atoms: _454  and  _457
REMARK  185  A    between atoms: _457  and  _458
REMARK  186  A    between atoms: _468  and  _470
REMARK  187  A    between atoms: _470  and  _471
REMARK  188  A    between atoms: _473  and  _475
REMARK  189  A    between atoms: _475  and  _476
REMARK  190  A    between atoms: _475  and  _478
REMARK  191  A    between atoms: _478  and  _479
REMARK  192  A    between atoms: _479  and  _480
REMARK  193  A    between atoms: _483  and  _485
REMARK  194  A    between atoms: _485  and  _486
REMARK  195  A    between atoms: _488  and  _490
REMARK  196  A    between atoms: _490  and  _491
REMARK  197  A    between atoms: _490  and  _493
REMARK  198  A    between atoms: _493  and  _494
REMARK  199  A    between atoms: _495  and  _497
REMARK  200  A    between atoms: _497  and  _498
REMARK  201  A    between atoms: _497  and  _500
REMARK  202  A    between atoms: _500  and  _501
REMARK  203  A    between atoms: _504  and  _506
REMARK  204  A    between atoms: _506  and  _507
REMARK  205  A    between atoms: _506  and  _509
REMARK  206  A    between atoms: _509  and  _510
REMARK  207  A    between atoms: _510  and  _511
REMARK  208  A    between atoms: _511  and  _512
REMARK  209  A    between atoms: _521  and  _523
REMARK  210  A    between atoms: _523  and  _524
REMARK  211  A    between atoms: _523  and  _526
REMARK  212  A    between atoms: _526  and  _527
REMARK  213  A    between atoms: _527  and  _528
REMARK  214  A    between atoms: _528  and  _529
REMARK  215  A    between atoms: _529  and  _530
REMARK  216  A    between atoms: _534  and  _536
REMARK  217  A    between atoms: _536  and  _537
REMARK  218  A    between atoms: _536  and  _539
REMARK  219  A    between atoms: _539  and  _540
REMARK  220  A    between atoms: _545  and  _546
REMARK  221  A    between atoms: _548  and  _550
REMARK  222  A    between atoms: _550  and  _551
REMARK  223  A    between atoms: _553  and  _555
REMARK  224  A    between atoms: _555  and  _556
REMARK  225  A    between atoms: _555  and  _558
REMARK  226  A    between atoms: _558  and  _559
REMARK  227  A    between atoms: _565  and  _567
REMARK  228  A    between atoms: _567  and  _568
REMARK  229  A    between atoms: _567  and  _570
REMARK  230  A    between atoms: _570  and  _571
REMARK  231  A    between atoms: _576  and  _577
REMARK  232  A    between atoms: _579  and  _581
REMARK  233  A    between atoms: _581  and  _582
REMARK  234  A    between atoms: _581  and  _584
REMARK  235  A    between atoms: _584  and  _585
REMARK                            x       y       z     vdW  Elec       q    Type
REMARK                         _______ _______ _______ _____ _____    ______ ____
ROOT
ATOM      1  CA  TYR A   2      25.667 -12.050  16.266  0.00  0.00    +0.141 C 
ENDROOT
BRANCH   1   4
ATOM      2  C   LEU A   1      25.844  -9.687  15.751  0.00  0.00    +0.238 C 
ATOM      3  O   LEU A   1      25.548  -9.367  16.904  0.00  0.00    -0.274 OA
ATOM      4  N   TYR A   2      25.906 -10.950  15.345  0.00  0.00    -0.298 N 
ATOM      5  H   TYR A   2      26.130 -11.156  14.350  0.00  0.00    +0.150 HD
BRANCH   2   6
ATOM      6  CA  LEU A   1      26.161  -8.634  14.701  0.00  0.00    +0.145 C 
BRANCH   6   7
ATOM      7  N   LEU A   1      25.052  -7.742  14.382  0.00  0.00    -0.238 NA
ATOM      8  H   LEU A   1      24.534  -7.275  15.153  0.00  0.00    +0.142 HD
ENDBRANCH   6   7
BRANCH   6   9
ATOM      9  CB  LEU A   1      27.359  -7.807  15.174  0.00  0.00    +0.026 C 
BRANCH   9  10
ATOM     10  CG  LEU A   1      28.602  -8.575  15.634  0.00  0.00    +0.002 C 
ATOM     11  CD2 LEU A   1      29.577  -7.607  16.323  0.00  0.00    +0.000 C 
ATOM     12  CD1 LEU A   1      29.271  -9.251  14.426  0.00  0.00    +0.000 C 
ENDBRANCH   9  10
ENDBRANCH   6   9
ENDBRANCH   2   6
ENDBRANCH   1   4
BRANCH   1  13
ATOM     13  C   TYR A   2      26.273 -13.340  15.717  0.00  0.00    +0.227 C 
ATOM     14  O   TYR A   2      25.590 -14.150  15.089  0.00  0.00    -0.286 OA
ENDBRANCH   1  13
BRANCH   1  15
ATOM     15  CB  TYR A   2      24.173 -12.238  16.524  0.00  0.00    +0.054 C 
BRANCH  15  16
ATOM     16  CG  TYR A   2      23.907 -13.123  17.718  0.00  0.00    -0.020 A 
ATOM     17  CD2 TYR A   2      24.324 -12.744  18.987  0.00  0.00    -0.001 A 
ATOM     18  CE2 TYR A   2      24.145 -13.576  20.080  0.00  0.00    +0.036 A 
ATOM     19  CZ  TYR A   2      23.542 -14.800  19.910  0.00  0.00    +0.134 A 
ATOM     20  CE1 TYR A   2      23.110 -15.199  18.657  0.00  0.00    +0.036 A 
ATOM     21  CD1 TYR A   2      23.294 -14.359  17.571  0.00  0.00    -0.001 A 
BRANCH  19  22
ATOM     22  OH  TYR A   2      23.390 -15.640  20.987  0.00  0.00    -0.506 OA
ATOM     23  HH  TYR A   2      23.749 -15.202  21.799  0.00  0.00    +0.292 HD
ENDBRANCH  19  22
ENDBRANCH  15  16
ENDBRANCH   1  15
TORSDOF 9
REMARK  Name = ../refined-set-2016/1z71/1z71_pocket.pdb
REMARK  235 active torsions:
REMARK  status: ('A' for Active; 'I' for Inactive)
REMARK    1  A    between atoms: _1  and  _5
REMARK    2  A    between atoms: _5  and  _6
REMARK    3  A    between atoms: _5  and  _8
REMARK    4  A    between atoms: _8  and  _9
REMARK    5  A    between atoms: _12  and  _14
REMARK    6  A    between atoms: _14  and  _15
REMARK    7  A    between atoms: _14  and  _17
REMARK    8  A    between atoms: _20  and  _22
REMARK    9  A    between atoms: _22  and  _23
REMARK   10  A    between atoms: _22  and  _25
REMARK   11  A    between atoms: _25  and  _26
REMARK   12  A    between atoms: _26  and  _61
REMARK   13  A    between atoms: _27  and  _29
REMARK   14  A    between atoms: _29  and  _30
REMARK   15  A    between atoms: _32  and  _34
REMARK   16  A    between atoms: _34  and  _35
REMARK   17  A    between atoms: _38  and  _40
REMARK   18  A    between atoms: _40  and  _41
REMARK   19  A    between atoms: _44  and  _46
REMARK   20  A    between atoms: _46  and  _47
REMARK   21  A    between atoms: _46  and  _49
REMARK   22  A    between atoms: _49  and  _50
REMARK   23  A    between atoms: _55  and  _57
REMARK   24  A    between atoms: _57  and  _58
REMARK   25  A    between atoms: _57  and  _60
REMARK   26  A    between atoms: _60  and  _61
REMARK   27  A    between atoms: _62  and  _64
REMARK   28  A    between atoms: _64  and  _65
REMARK   29  A    between atoms: _64  and  _67
REMARK   30  A    between atoms: _67  and  _68
REMARK   31  A    between atoms: _71  and  _73
REMARK   32  A    between atoms: _73  and  _74
REMARK   33  A    between atoms: _73  and  _76
REMARK   34  A    between atoms: _76  and  _77
REMARK   35  A    between atoms: _82  and  _83
REMARK   36  A    between atoms: _86  and  _87
REMARK   37  A    between atoms: _92  and  _94
REMARK   38  A    between atoms: _94  and  _95
REMARK   39  A    between atoms: _94  and  _97
REMARK   40  A    between atoms: _97  and  _98
REMARK   41  A    between atoms: _108  and  _110
REMARK   42  A    between atoms: _110  and  _111
REMARK   43  A    between atoms: _110  and  _113
REMARK   44  A    between atoms: _113  and  _114
REMARK   45  A    between atoms: _114  and  _115
REMARK   46  A    between atoms: _115  and  _116
REMARK   47  A    between atoms: _116  and  _117
REMARK   48  A    between atoms: _121  and  _123
REMARK   49  A    between atoms: _123  and  _124
REMARK   50  A    between atoms: _123  and  _126
REMARK   51  A    between atoms: _126  and  _127
REMARK   52  A    between atoms: _132  and  _133
REMARK   53  A    between atoms: _135  and  _137
REMARK   54  A    between atoms: _137  and  _138
REMARK   55  A    between atoms: _137  and  _140
REMARK   56  A    between atoms: _140  and  _141
REMARK   57  A    between atoms: _146  and  _148
REMARK   58  A    between atoms: _148  and  _149
REMARK   59  A    between atoms: _148  and  _151
REMARK   60  A    between atoms: _151  and  _152
REMARK   61  A    between atoms: _162  and  _164
REMARK   62  A    between atoms: _164  and  _165
REMARK   63  A    between atoms: _164  and  _167
REMARK   64  A    between atoms: _167  and  _168
REMARK   65  A    between atoms: _168  and  _169
REMARK   66  A    between atoms: _169  and  _170
REMARK   67  A    between atoms: _179  and  _181
REMARK   68  A    between atoms: _181  and  _182
REMARK   69  A    between atoms: _181  and  _184
REMARK   70  A    between atoms: _184  and  _185
REMARK   71  A    between atoms: _185  and  _186
REMARK   72  A    between atoms: _189  and  _191
REMARK   73  A    between atoms: _191  and  _192
REMARK   74  A    between atoms: _191  and  _194
REMARK   75  A    between atoms: _194  and  _195
REMARK   76  A    between atoms: _200  and  _202
REMARK   77  A    between atoms: _202  and  _203
REMARK   78  A    between atoms: _202  and  _205
REMARK   79  A    between atoms: _205  and  _206
REMARK   80  A    between atoms: _209  and  _211
REMARK   81  A    between atoms: _211  and  _212
REMARK   82  A    between atoms: _211  and  _214
REMARK   83  A    between atoms: _214  and  _215
REMARK   84  A    between atoms: _218  and  _220
REMARK   85  A    between atoms: _220  and  _221
REMARK   86  A    between atoms: _220  and  _223
REMARK   87  A    between atoms: _223  and  _224
REMARK   88  A    between atoms: _227  and  _229
REMARK   89  A    between atoms: _229  and  _230
REMARK   90  A    between atoms: _229  and  _232
REMARK   91  A    between atoms: _235  and  _237
REMARK   92  A    between atoms: _237  and  _238
REMARK   93  A    between atoms: _240  and  _242
REMARK   94  A    between atoms: _242  and  _243
REMARK   95  A    between atoms: _242  and  _245
REMARK   96  A    between atoms: _245  and  _246
REMARK   97  A    between atoms: _251  and  _253
REMARK   98  A    between atoms: _253  and  _254
REMARK   99  A    between atoms: _253  and  _256
REMARK  100  A    between atoms: _256  and  _257
REMARK  101  A    between atoms: _260  and  _262
REMARK  102  A    between atoms: _262  and  _263
REMARK  103  A    between atoms: _262  and  _265
REMARK  104  A    between atoms: _265  and  _266
REMARK  105  A    between atoms: _269  and  _271
REMARK  106  A    between atoms: _271  and  _272
REMARK  107  A    between atoms: _271  and  _274
REMARK  108  A    between atoms: _274  and  _275
REMARK  109  A    between atoms: _275  and  _276
REMARK  110  A    between atoms: _276  and  _277
REMARK  111  A    between atoms: _286  and  _288
REMARK  112  A    between atoms: _288  and  _289
REMARK  113  A    between atoms: _288  and  _291
REMARK  114  A    between atoms: _291  and  _292
REMARK  115  A    between atoms: _295  and  _297
REMARK  116  A    between atoms: _297  and  _298
REMARK  117  A    between atoms: _297  and  _300
REMARK  118  A    between atoms: _300  and  _301
REMARK  119  A    between atoms: _301  and  _302
REMARK  120  A    between atoms: _302  and  _303
REMARK  121  A    between atoms: _312  and  _314
REMARK  122  A    between atoms: _314  and  _315
REMARK  123  A    between atoms: _314  and  _317
REMARK  124  A    between atoms: _317  and  _318
REMARK  125  A    between atoms: _318  and  _319
REMARK  126  A    between atoms: _321  and  _323
REMARK  127  A    between atoms: _323  and  _324
REMARK  128  A    between atoms: _323  and  _326
REMARK  129  A    between atoms: _326  and  _327
REMARK  130  A    between atoms: _333  and  _335
REMARK  131  A    between atoms: _335  and  _336
REMARK  132  A    between atoms: _335  and  _338
REMARK  133  A    between atoms: _340  and  _342
REMARK  134  A    between atoms: _342  and  _343
REMARK  135  A    between atoms: _346  and  _348
REMARK  136  A    between atoms: _348  and  _349
REMARK  137  A    between atoms: _351  and  _353
REMARK  138  A    between atoms: _353  and  _354
REMARK  139  A    between atoms: _353  and  _356
REMARK  140  A    between atoms: _356  and  _357
REMARK  141  A    between atoms: _360  and  _362
REMARK  142  A    between atoms: _362  and  _363
REMARK  143  A    between atoms: _366  and  _368
REMARK  144  A    between atoms: _368  and  _369
REMARK  145  A    between atoms: _368  and  _371
REMARK  146  A    between atoms: _371  and  _372
REMARK  147  A    between atoms: _372  and  _494
REMARK  148  A    between atoms: _373  and  _375
REMARK  149  A    between atoms: _375  and  _376
REMARK  150  A    between atoms: _375  and  _378
REMARK  151  A    between atoms: _378  and  _379
REMARK  152  A    between atoms: _379  and  _380
REMARK  153  A    between atoms: _383  and  _385
REMARK  154  A    between atoms: _385  and  _386
REMARK  155  A    between atoms: _388  and  _390
REMARK  156  A    between atoms: _390  and  _391
REMARK  157  A    between atoms: _390  and  _393
REMARK  158  A    between atoms: _393  and  _394
REMARK  159  A    between atoms: _397  and  _399
REMARK  160  A    between atoms: _399  and  _400
REMARK  161  A    between atoms: _399  and  _402
REMARK  162  A    between atoms: _402  and  _403
REMARK  163  A    between atoms: _405  and  _407
REMARK  164  A    between atoms: _407  and  _408
REMARK  165  A    between atoms: _410  and  _412
REMARK  166  A    between atoms: _412  and  _413
REMARK  167  A    between atoms: _415  and  _417
REMARK  168  A    between atoms: _417  and  _418
REMARK  169  A    between atoms: _417  and  _420
REMARK  170  A    between atoms: _420  and  _421
REMARK  171  A    between atoms: _427  and  _429
REMARK  172  A    between atoms: _429  and  _430
REMARK  173  A    between atoms: _429  and  _432
REMARK  174  A    between atoms: _432  and  _433
REMARK  175  A    between atoms: _436  and  _438
REMARK  176  A    between atoms: _438  and  _439
REMARK  177  A    between atoms: _438  and  _441
REMARK  178  A    between atoms: _444  and  _446
REMARK  179  A    between atoms: _446  and  _447
REMARK  180  A    between atoms: _446  and  _449
REMARK  181  A    between atoms: _449  and  _450
REMARK  182  A    between atoms: _452  and  _454
REMARK  183  A    between atoms: _454  and  _455
REMARK  184  A    between atoms: _454  and  _457
REMARK  185  A    between atoms: _457  and  _458
REMARK  186  A    between atoms: _468  and  _470
REMARK  187  A    between atoms: _470  and  _471
REMARK  188  A    between atoms: _473  and  _475
REMARK  189  A    between atoms: _475  and  _476
REMARK  190  A    between atoms: _475  and  _478
REMARK  191  A    between atoms: _478  and  _479
REMARK  192  A    between atoms: _479  and  _480
REMARK  193  A    between atoms: _483  and  _485
REMARK  194  A    between atoms: _485  and  _486
REMARK  195  A    between atoms: _488  and  _490
REMARK  196  A    between atoms: _490  and  _491
REMARK  197  A    between atoms: _490  and  _493
REMARK  198  A    between atoms: _493  and  _494
REMARK  199  A    between atoms: _495  and  _497
REMARK  200  A    between atoms: _497  and  _498
REMARK  201  A    between atoms: _497  and  _500
REMARK  202  A    between atoms: _500  and  _501
REMARK  203  A    between atoms: _504  and  _506
REMARK  204  A    between atoms: _506  and  _507
REMARK  205  A    between atoms: _506  and  _509
REMARK  206  A    between atoms: _509  and  _510
REMARK  207  A    between atoms: _510  and  _511
REMARK  208  A    between atoms: _511  and  _512
REMARK  209  A    between atoms: _521  and  _523
REMARK  210  A    between atoms: _523  and  _524
REMARK  211  A    between atoms: _523  and  _526
REMARK  212  A    between atoms: _526  and  _527
REMARK  213  A    between atoms: _527  and  _528
REMARK  214  A    between atoms: _528  and  _529
REMARK  215  A    between atoms: _529  and  _530
REMARK  216  A    between atoms: _534  and  _536
REMARK  217  A    between atoms: _536  and  _537
REMARK  218  A    between atoms: _536  and  _539
REMARK  219  A    between atoms: _539  and  _540
REMARK  220  A    between atoms: _545  and  _546
REMARK  221  A    between atoms: _548  and  _550
REMARK  222  A    between atoms: _550  and  _551
REMARK  223  A    between atoms: _553  and  _555
REMARK  224  A    between atoms: _555  and  _556
REMARK  225  A    between atoms: _555  and  _558
REMARK  226  A    between atoms: _558  and  _559
REMARK  227  A    between atoms: _565  and  _567
REMARK  228  A    between atoms: _567  and  _568
REMARK  229  A    between atoms: _567  and  _570
REMARK  230  A    between atoms: _570  and  _571
REMARK  231  A    between atoms: _576  and  _577
REMARK  232  A    between atoms: _579  and  _581
REMARK  233  A    between atoms: _581  and  _582
REMARK  234  A    between atoms: _581  and  _584
REMARK  235  A    between atoms: _584  and  _585
REMARK                            x       y       z     vdW  Elec       q    Type
REMARK                         _______ _______ _______ _____ _____    ______ ____
ROOT
ATOM      1  CA  TRP A   2      23.830 -17.369  14.257  0.00  0.00    +0.141 C 
ENDROOT
BRANCH   1   4
ATOM      2  C   PRO A   1      25.451 -18.061  15.936  0.00  0.00    +0.239 C 
ATOM      3  O   PRO A   1      25.328 -19.245  15.622  0.00  0.00    -0.274 OA
ATOM      4  N   TRP A   2      24.764 -17.085  15.347  0.00  0.00    -0.298 N 
ATOM      5  H   TRP A   2      24.893 -16.104  15.667  0.00  0.00    +0.150 HD
BRANCH   2  10
ATOM      6  N   PRO A   1      27.029 -16.335  16.864  0.00  0.00    -0.210 NA
ATOM      7  CD  PRO A   1      26.907 -15.536  18.097  0.00  0.00    +0.089 C 
ATOM      8  CG  PRO A   1      26.627 -16.595  19.138  0.00  0.00    +0.021 C 
ATOM      9  CB  PRO A   1      25.720 -17.526  18.400  0.00  0.00    +0.028 C 
ATOM     10  CA  PRO A   1      26.413 -17.655  17.047  0.00  0.00    +0.149 C 
ENDBRANCH   2  10
ENDBRANCH   1   4
BRANCH   1  11
ATOM     11  C   TRP A   2      24.378 -16.880  12.917  0.00  0.00    +0.227 C 
ATOM     12  O   TRP A   2      23.616 -16.653  11.978  0.00  0.00    -0.286 OA
ENDBRANCH   1  11
BRANCH   1  13
ATOM     13  CB  TRP A   2      22.477 -16.696  14.505  0.00  0.00    +0.056 C 
BRANCH  13  14
ATOM     14  CG  TRP A   2      21.748 -17.163  15.729  0.00  0.00    -0.002 A 
ATOM     15  CD1 TRP A   2      22.008 -18.279  16.471  0.00  0.00    +0.068 A 
ATOM     16  NE1 TRP A   2      21.106 -18.382  17.504  0.00  0.00    -0.352 N 
ATOM     17  HE1 TRP A   2      21.085 -19.140  18.216  0.00  0.00    +0.166 HD
ATOM     18  CE2 TRP A   2      20.239 -17.323  17.442  0.00  0.00    +0.056 A 
ATOM     19  CZ2 TRP A   2      19.161 -16.993  18.263  0.00  0.00    +0.017 A 
ATOM     20  CH2 TRP A   2      18.461 -15.860  17.958  0.00  0.00    +0.001 A 
ATOM     21  CZ3 TRP A   2      18.808 -15.056  16.867  0.00  0.00    +0.000 A 
ATOM     22  CE3 TRP A   2      19.877 -15.380  16.050  0.00  0.00    +0.001 A 
ATOM     23  CD2 TRP A   2      20.614 -16.534  16.337  0.00  0.00    +0.013 A 
ENDBRANCH  13  14
ENDBRANCH   1  13
TORSDOF 5
REMARK  Name = ../refined-set-2016/1z71/1z71_pocket.pdb
REMARK  235 active torsions:
REMARK  status: ('A' for Active; 'I' for Inactive)
REMARK    1  A    between atoms: _1  and  _5
REMARK    2  A    between atoms: _5  and  _6
REMARK    3  A    between atoms: _5  and  _8
REMARK    4  A    between atoms: _8  and  _9
REMARK    5  A    between atoms: _12  and  _14
REMARK    6  A    between atoms: _14  and  _15
REMARK    7  A    between atoms: _14  and  _17
REMARK    8  A    between atoms: _20  and  _22
REMARK    9  A    between atoms: _22  and  _23
REMARK   10  A    between atoms: _22  and  _25
REMARK   11  A    between atoms: _25  and  _26
REMARK   12  A    between atoms: _26  and  _61
REMARK   13  A    between atoms: _27  and  _29
REMARK   14  A    between atoms: _29  and  _30
REMARK   15  A    between atoms: _32  and  _34
REMARK   16  A    between atoms: _34  and  _35
REMARK   17  A    between atoms: _38  and  _40
REMARK   18  A    between atoms: _40  and  _41
REMARK   19  A    between atoms: _44  and  _46
REMARK   20  A    between atoms: _46  and  _47
REMARK   21  A    between atoms: _46  and  _49
REMARK   22  A    between atoms: _49  and  _50
REMARK   23  A    between atoms: _55  and  _57
REMARK   24  A    between atoms: _57  and  _58
REMARK   25  A    between atoms: _57  and  _60
REMARK   26  A    between atoms: _60  and  _61
REMARK   27  A    between atoms: _62  and  _64
REMARK   28  A    between atoms: _64  and  _65
REMARK   29  A    between atoms: _64  and  _67
REMARK   30  A    between atoms: _67  and  _68
REMARK   31  A    between atoms: _71  and  _73
REMARK   32  A    between atoms: _73  and  _74
REMARK   33  A    between atoms: _73  and  _76
REMARK   34  A    between atoms: _76  and  _77
REMARK   35  A    between atoms: _82  and  _83
REMARK   36  A    between atoms: _86  and  _87
REMARK   37  A    between atoms: _92  and  _94
REMARK   38  A    between atoms: _94  and  _95
REMARK   39  A    between atoms: _94  and  _97
REMARK   40  A    between atoms: _97  and  _98
REMARK   41  A    between atoms: _108  and  _110
REMARK   42  A    between atoms: _110  and  _111
REMARK   43  A    between atoms: _110  and  _113
REMARK   44  A    between atoms: _113  and  _114
REMARK   45  A    between atoms: _114  and  _115
REMARK   46  A    between atoms: _115  and  _116
REMARK   47  A    between atoms: _116  and  _117
REMARK   48  A    between atoms: _121  and  _123
REMARK   49  A    between atoms: _123  and  _124
REMARK   50  A    between atoms: _123  and  _126
REMARK   51  A    between atoms: _126  and  _127
REMARK   52  A    between atoms: _132  and  _133
REMARK   53  A    between atoms: _135  and  _137
REMARK   54  A    between atoms: _137  and  _138
REMARK   55  A    between atoms: _137  and  _140
REMARK   56  A    between atoms: _140  and  _141
REMARK   57  A    between atoms: _146  and  _148
REMARK   58  A    between atoms: _148  and  _149
REMARK   59  A    between atoms: _148  and  _151
REMARK   60  A    between atoms: _151  and  _152
REMARK   61  A    between atoms: _162  and  _164
REMARK   62  A    between atoms: _164  and  _165
REMARK   63  A    between atoms: _164  and  _167
REMARK   64  A    between atoms: _167  and  _168
REMARK   65  A    between atoms: _168  and  _169
REMARK   66  A    between atoms: _169  and  _170
REMARK   67  A    between atoms: _179  and  _181
REMARK   68  A    between atoms: _181  and  _182
REMARK   69  A    between atoms: _181  and  _184
REMARK   70  A    between atoms: _184  and  _185
REMARK   71  A    between atoms: _185  and  _186
REMARK   72  A    between atoms: _189  and  _191
REMARK   73  A    between atoms: _191  and  _192
REMARK   74  A    between atoms: _191  and  _194
REMARK   75  A    between atoms: _194  and  _195
REMARK   76  A    between atoms: _200  and  _202
REMARK   77  A    between atoms: _202  and  _203
REMARK   78  A    between atoms: _202  and  _205
REMARK   79  A    between atoms: _205  and  _206
REMARK   80  A    between atoms: _209  and  _211
REMARK   81  A    between atoms: _211  and  _212
REMARK   82  A    between atoms: _211  and  _214
REMARK   83  A    between atoms: _214  and  _215
REMARK   84  A    between atoms: _218  and  _220
REMARK   85  A    between atoms: _220  and  _221
REMARK   86  A    between atoms: _220  and  _223
REMARK   87  A    between atoms: _223  and  _224
REMARK   88  A    between atoms: _227  and  _229
REMARK   89  A    between atoms: _229  and  _230
REMARK   90  A    between atoms: _229  and  _232
REMARK   91  A    between atoms: _235  and  _237
REMARK   92  A    between atoms: _237  and  _238
REMARK   93  A    between atoms: _240  and  _242
REMARK   94  A    between atoms: _242  and  _243
REMARK   95  A    between atoms: _242  and  _245
REMARK   96  A    between atoms: _245  and  _246
REMARK   97  A    between atoms: _251  and  _253
REMARK   98  A    between atoms: _253  and  _254
REMARK   99  A    between atoms: _253  and  _256
REMARK  100  A    between atoms: _256  and  _257
REMARK  101  A    between atoms: _260  and  _262
REMARK  102  A    between atoms: _262  and  _263
REMARK  103  A    between atoms: _262  and  _265
REMARK  104  A    between atoms: _265  and  _266
REMARK  105  A    between atoms: _269  and  _271
REMARK  106  A    between atoms: _271  and  _272
REMARK  107  A    between atoms: _271  and  _274
REMARK  108  A    between atoms: _274  and  _275
REMARK  109  A    between atoms: _275  and  _276
REMARK  110  A    between atoms: _276  and  _277
REMARK  111  A    between atoms: _286  and  _288
REMARK  112  A    between atoms: _288  and  _289
REMARK  113  A    between atoms: _288  and  _291
REMARK  114  A    between atoms: _291  and  _292
REMARK  115  A    between atoms: _295  and  _297
REMARK  116  A    between atoms: _297  and  _298
REMARK  117  A    between atoms: _297  and  _300
REMARK  118  A    between atoms: _300  and  _301
REMARK  119  A    between atoms: _301  and  _302
REMARK  120  A    between atoms: _302  and  _303
REMARK  121  A    between atoms: _312  and  _314
REMARK  122  A    between atoms: _314  and  _315
REMARK  123  A    between atoms: _314  and  _317
REMARK  124  A    between atoms: _317  and  _318
REMARK  125  A    between atoms: _318  and  _319
REMARK  126  A    between atoms: _321  and  _323
REMARK  127  A    between atoms: _323  and  _324
REMARK  128  A    between atoms: _323  and  _326
REMARK  129  A    between atoms: _326  and  _327
REMARK  130  A    between atoms: _333  and  _335
REMARK  131  A    between atoms: _335  and  _336
REMARK  132  A    between atoms: _335  and  _338
REMARK  133  A    between atoms: _340  and  _342
REMARK  134  A    between atoms: _342  and  _343
REMARK  135  A    between atoms: _346  and  _348
REMARK  136  A    between atoms: _348  and  _349
REMARK  137  A    between atoms: _351  and  _353
REMARK  138  A    between atoms: _353  and  _354
REMARK  139  A    between atoms: _353  and  _356
REMARK  140  A    between atoms: _356  and  _357
REMARK  141  A    between atoms: _360  and  _362
REMARK  142  A    between atoms: _362  and  _363
REMARK  143  A    between atoms: _366  and  _368
REMARK  144  A    between atoms: _368  and  _369
REMARK  145  A    between atoms: _368  and  _371
REMARK  146  A    between atoms: _371  and  _372
REMARK  147  A    between atoms: _372  and  _494
REMARK  148  A    between atoms: _373  and  _375
REMARK  149  A    between atoms: _375  and  _376
REMARK  150  A    between atoms: _375  and  _378
REMARK  151  A    between atoms: _378  and  _379
REMARK  152  A    between atoms: _379  and  _380
REMARK  153  A    between atoms: _383  and  _385
REMARK  154  A    between atoms: _385  and  _386
REMARK  155  A    between atoms: _388  and  _390
REMARK  156  A    between atoms: _390  and  _391
REMARK  157  A    between atoms: _390  and  _393
REMARK  158  A    between atoms: _393  and  _394
REMARK  159  A    between atoms: _397  and  _399
REMARK  160  A    between atoms: _399  and  _400
REMARK  161  A    between atoms: _399  and  _402
REMARK  162  A    between atoms: _402  and  _403
REMARK  163  A    between atoms: _405  and  _407
REMARK  164  A    between atoms: _407  and  _408
REMARK  165  A    between atoms: _410  and  _412
REMARK  166  A    between atoms: _412  and  _413
REMARK  167  A    between atoms: _415  and  _417
REMARK  168  A    between atoms: _417  and  _418
REMARK  169  A    between atoms: _417  and  _420
REMARK  170  A    between atoms: _420  and  _421
REMARK  171  A    between atoms: _427  and  _429
REMARK  172  A    between atoms: _429  and  _430
REMARK  173  A    between atoms: _429  and  _432
REMARK  174  A    between atoms: _432  and  _433
REMARK  175  A    between atoms: _436  and  _438
REMARK  176  A    between atoms: _438  and  _439
REMARK  177  A    between atoms: _438  and  _441
REMARK  178  A    between atoms: _444  and  _446
REMARK  179  A    between atoms: _446  and  _447
REMARK  180  A    between atoms: _446  and  _449
REMARK  181  A    between atoms: _449  and  _450
REMARK  182  A    between atoms: _452  and  _454
REMARK  183  A    between atoms: _454  and  _455
REMARK  184  A    between atoms: _454  and  _457
REMARK  185  A    between atoms: _457  and  _458
REMARK  186  A    between atoms: _468  and  _470
REMARK  187  A    between atoms: _470  and  _471
REMARK  188  A    between atoms: _473  and  _475
REMARK  189  A    between atoms: _475  and  _476
REMARK  190  A    between atoms: _475  and  _478
REMARK  191  A    between atoms: _478  and  _479
REMARK  192  A    between atoms: _479  and  _480
REMARK  193  A    between atoms: _483  and  _485
REMARK  194  A    between atoms: _485  and  _486
REMARK  195  A    between atoms: _488  and  _490
REMARK  196  A    between atoms: _490  and  _491
REMARK  197  A    between atoms: _490  and  _493
REMARK  198  A    between atoms: _493  and  _494
REMARK  199  A    between atoms: _495  and  _497
REMARK  200  A    between atoms: _497  and  _498
REMARK  201  A    between atoms: _497  and  _500
REMARK  202  A    between atoms: _500  and  _501
REMARK  203  A    between atoms: _504  and  _506
REMARK  204  A    between atoms: _506  and  _507
REMARK  205  A    between atoms: _506  and  _509
REMARK  206  A    between atoms: _509  and  _510
REMARK  207  A    between atoms: _510  and  _511
REMARK  208  A    between atoms: _511  and  _512
REMARK  209  A    between atoms: _521  and  _523
REMARK  210  A    between atoms: _523  and  _524
REMARK  211  A    between atoms: _523  and  _526
REMARK  212  A    between atoms: _526  and  _527
REMARK  213  A    between atoms: _527  and  _528
REMARK  214  A    between atoms: _528  and  _529
REMARK  215  A    between atoms: _529  and  _530
REMARK  216  A    between atoms: _534  and  _536
REMARK  217  A    between atoms: _536  and  _537
REMARK  218  A    between atoms: _536  and  _539
REMARK  219  A    between atoms: _539  and  _540
REMARK  220  A    between atoms: _545  and  _546
REMARK  221  A    between atoms: _548  and  _550
REMARK  222  A    between atoms: _550  and  _551
REMARK  223  A    between atoms: _553  and  _555
REMARK  224  A    between atoms: _555  and  _556
REMARK  225  A    between atoms: _555  and  _558
REMARK  226  A    between atoms: _558  and  _559
REMARK  227  A    between atoms: _565  and  _567
REMARK  228  A    between atoms: _567  and  _568
REMARK  229  A    between atoms: _567  and  _570
REMARK  230  A    between atoms: _570  and  _571
REMARK  231  A    between atoms: _576  and  _577
REMARK  232  A    between atoms: _579  and  _581
REMARK  233  A    between atoms: _581  and  _582
REMARK  234  A    between atoms: _581  and  _584
REMARK  235  A    between atoms: _584  and  _585
REMARK                            x       y       z     vdW  Elec       q    Type
REMARK                         _______ _______ _______ _____ _____    ______ ____
ROOT
ATOM      1  CG  LYS A   1      23.182 -10.980  12.060  0.00  0.00    -0.000 C 
ENDROOT
BRANCH   1   2
ATOM      2  CB  LYS A   1      23.740 -12.361  12.355  0.00  0.00    +0.025 C 
BRANCH   2   3
ATOM      3  CA  LYS A   1      24.930 -12.742  11.475  0.00  0.00    +0.133 C 
BRANCH   3   4
ATOM      4  N   LYS A   1      25.496 -14.009  11.911  0.00  0.00    -0.239 NA
ATOM      5  H   LYS A   1      25.697 -14.156  12.921  0.00  0.00    +0.142 HD
ENDBRANCH   3   4
BRANCH   3   6
ATOM      6  C   LYS A   1      26.006 -11.669  11.561  0.00  0.00    +0.224 C 
ATOM      7  O   LYS A   1      26.596 -11.455  12.620  0.00  0.00    -0.287 OA
ENDBRANCH   3   6
ENDBRANCH   2   3
ENDBRANCH   1   2
BRANCH   1   8
ATOM      8  CD  LYS A   1      21.928 -10.711  12.870  0.00  0.00    -0.024 C 
BRANCH   8   9
ATOM      9  CE  LYS A   1      20.861 -11.756  12.587  0.00  0.00    -0.086 C 
BRANCH   9  10
ATOM     10  NZ  LYS A   1      19.653 -11.537  13.430  0.00  0.00    +0.380 N 
ATOM     11  HZ1 LYS A   1      19.917 -11.596  14.434  0.00  0.00    -0.089 HD
ATOM     12  HZ2 LYS A   1      19.258 -10.596  13.229  0.00  0.00    -0.089 HD
ATOM     13  HZ3 LYS A   1      18.944 -12.266  13.213  0.00  0.00    -0.089 HD
ENDBRANCH   9  10
ENDBRANCH   8   9
ENDBRANCH   1   8
TORSDOF 7
REMARK  Name = ../refined-set-2016/1z71/1z71_pocket.pdb
REMARK  235 active torsions:
REMARK  status: ('A' for Active; 'I' for Inactive)
REMARK    1  A    between atoms: _1  and  _5
REMARK    2  A    between atoms: _5  and  _6
REMARK    3  A    between atoms: _5  and  _8
REMARK    4  A    between atoms: _8  and  _9
REMARK    5  A    between atoms: _12  and  _14
REMARK    6  A    between atoms: _14  and  _15
REMARK    7  A    between atoms: _14  and  _17
REMARK    8  A    between atoms: _20  and  _22
REMARK    9  A    between atoms: _22  and  _23
REMARK   10  A    between atoms: _22  and  _25
REMARK   11  A    between atoms: _25  and  _26
REMARK   12  A    between atoms: _26  and  _61
REMARK   13  A    between atoms: _27  and  _29
REMARK   14  A    between atoms: _29  and  _30
REMARK   15  A    between atoms: _32  and  _34
REMARK   16  A    between atoms: _34  and  _35
REMARK   17  A    between atoms: _38  and  _40
REMARK   18  A    between atoms: _40  and  _41
REMARK   19  A    between atoms: _44  and  _46
REMARK   20  A    between atoms: _46  and  _47
REMARK   21  A    between atoms: _46  and  _49
REMARK   22  A    between atoms: _49  and  _50
REMARK   23  A    between atoms: _55  and  _57
REMARK   24  A    between atoms: _57  and  _58
REMARK   25  A    between atoms: _57  and  _60
REMARK   26  A    between atoms: _60  and  _61
REMARK   27  A    between atoms: _62  and  _64
REMARK   28  A    between atoms: _64  and  _65
REMARK   29  A    between atoms: _64  and  _67
REMARK   30  A    between atoms: _67  and  _68
REMARK   31  A    between atoms: _71  and  _73
REMARK   32  A    between atoms: _73  and  _74
REMARK   33  A    between atoms: _73  and  _76
REMARK   34  A    between atoms: _76  and  _77
REMARK   35  A    between atoms: _82  and  _83
REMARK   36  A    between atoms: _86  and  _87
REMARK   37  A    between atoms: _92  and  _94
REMARK   38  A    between atoms: _94  and  _95
REMARK   39  A    between atoms: _94  and  _97
REMARK   40  A    between atoms: _97  and  _98
REMARK   41  A    between atoms: _108  and  _110
REMARK   42  A    between atoms: _110  and  _111
REMARK   43  A    between atoms: _110  and  _113
REMARK   44  A    between atoms: _113  and  _114
REMARK   45  A    between atoms: _114  and  _115
REMARK   46  A    between atoms: _115  and  _116
REMARK   47  A    between atoms: _116  and  _117
REMARK   48  A    between atoms: _121  and  _123
REMARK   49  A    between atoms: _123  and  _124
REMARK   50  A    between atoms: _123  and  _126
REMARK   51  A    between atoms: _126  and  _127
REMARK   52  A    between atoms: _132  and  _133
REMARK   53  A    between atoms: _135  and  _137
REMARK   54  A    between atoms: _137  and  _138
REMARK   55  A    between atoms: _137  and  _140
REMARK   56  A    between atoms: _140  and  _141
REMARK   57  A    between atoms: _146  and  _148
REMARK   58  A    between atoms: _148  and  _149
REMARK   59  A    between atoms: _148  and  _151
REMARK   60  A    between atoms: _151  and  _152
REMARK   61  A    between atoms: _162  and  _164
REMARK   62  A    between atoms: _164  and  _165
REMARK   63  A    between atoms: _164  and  _167
REMARK   64  A    between atoms: _167  and  _168
REMARK   65  A    between atoms: _168  and  _169
REMARK   66  A    between atoms: _169  and  _170
REMARK   67  A    between atoms: _179  and  _181
REMARK   68  A    between atoms: _181  and  _182
REMARK   69  A    between atoms: _181  and  _184
REMARK   70  A    between atoms: _184  and  _185
REMARK   71  A    between atoms: _185  and  _186
REMARK   72  A    between atoms: _189  and  _191
REMARK   73  A    between atoms: _191  and  _192
REMARK   74  A    between atoms: _191  and  _194
REMARK   75  A    between atoms: _194  and  _195
REMARK   76  A    between atoms: _200  and  _202
REMARK   77  A    between atoms: _202  and  _203
REMARK   78  A    between atoms: _202  and  _205
REMARK   79  A    between atoms: _205  and  _206
REMARK   80  A    between atoms: _209  and  _211
REMARK   81  A    between atoms: _211  and  _212
REMARK   82  A    between atoms: _211  and  _214
REMARK   83  A    between atoms: _214  and  _215
REMARK   84  A    between atoms: _218  and  _220
REMARK   85  A    between atoms: _220  and  _221
REMARK   86  A    between atoms: _220  and  _223
REMARK   87  A    between atoms: _223  and  _224
REMARK   88  A    between atoms: _227  and  _229
REMARK   89  A    between atoms: _229  and  _230
REMARK   90  A    between atoms: _229  and  _232
REMARK   91  A    between atoms: _235  and  _237
REMARK   92  A    between atoms: _237  and  _238
REMARK   93  A    between atoms: _240  and  _242
REMARK   94  A    between atoms: _242  and  _243
REMARK   95  A    between atoms: _242  and  _245
REMARK   96  A    between atoms: _245  and  _246
REMARK   97  A    between atoms: _251  and  _253
REMARK   98  A    between atoms: _253  and  _254
REMARK   99  A    between atoms: _253  and  _256
REMARK  100  A    between atoms: _256  and  _257
REMARK  101  A    between atoms: _260  and  _262
REMARK  102  A    between atoms: _262  and  _263
REMARK  103  A    between atoms: _262  and  _265
REMARK  104  A    between atoms: _265  and  _266
REMARK  105  A    between atoms: _269  and  _271
REMARK  106  A    between atoms: _271  and  _272
REMARK  107  A    between atoms: _271  and  _274
REMARK  108  A    between atoms: _274  and  _275
REMARK  109  A    between atoms: _275  and  _276
REMARK  110  A    between atoms: _276  and  _277
REMARK  111  A    between atoms: _286  and  _288
REMARK  112  A    between atoms: _288  and  _289
REMARK  113  A    between atoms: _288  and  _291
REMARK  114  A    between atoms: _291  and  _292
REMARK  115  A    between atoms: _295  and  _297
REMARK  116  A    between atoms: _297  and  _298
REMARK  117  A    between atoms: _297  and  _300
REMARK  118  A    between atoms: _300  and  _301
REMARK  119  A    between atoms: _301  and  _302
REMARK  120  A    between atoms: _302  and  _303
REMARK  121  A    between atoms: _312  and  _314
REMARK  122  A    between atoms: _314  and  _315
REMARK  123  A    between atoms: _314  and  _317
REMARK  124  A    between atoms: _317  and  _318
REMARK  125  A    between atoms: _318  and  _319
REMARK  126  A    between atoms: _321  and  _323
REMARK  127  A    between atoms: _323  and  _324
REMARK  128  A    between atoms: _323  and  _326
REMARK  129  A    between atoms: _326  and  _327
REMARK  130  A    between atoms: _333  and  _335
REMARK  131  A    between atoms: _335  and  _336
REMARK  132  A    between atoms: _335  and  _338
REMARK  133  A    between atoms: _340  and  _342
REMARK  134  A    between atoms: _342  and  _343
REMARK  135  A    between atoms: _346  and  _348
REMARK  136  A    between atoms: _348  and  _349
REMARK  137  A    between atoms: _351  and  _353
REMARK  138  A    between atoms: _353  and  _354
REMARK  139  A    between atoms: _353  and  _356
REMARK  140  A    between atoms: _356  and  _357
REMARK  141  A    between atoms: _360  and  _362
REMARK  142  A    between atoms: _362  and  _363
REMARK  143  A    between atoms: _366  and  _368
REMARK  144  A    between atoms: _368  and  _369
REMARK  145  A    between atoms: _368  and  _371
REMARK  146  A    between atoms: _371  and  _372
REMARK  147  A    between atoms: _372  and  _494
REMARK  148  A    between atoms: _373  and  _375
REMARK  149  A    between atoms: _375  and  _376
REMARK  150  A    between atoms: _375  and  _378
REMARK  151  A    between atoms: _378  and  _379
REMARK  152  A    between atoms: _379  and  _380
REMARK  153  A    between atoms: _383  and  _385
REMARK  154  A    between atoms: _385  and  _386
REMARK  155  A    between atoms: _388  and  _390
REMARK  156  A    between atoms: _390  and  _391
REMARK  157  A    between atoms: _390  and  _393
REMARK  158  A    between atoms: _393  and  _394
REMARK  159  A    between atoms: _397  and  _399
REMARK  160  A    between atoms: _399  and  _400
REMARK  161  A    between atoms: _399  and  _402
REMARK  162  A    between atoms: _402  and  _403
REMARK  163  A    between atoms: _405  and  _407
REMARK  164  A    between atoms: _407  and  _408
REMARK  165  A    between atoms: _410  and  _412
REMARK  166  A    between atoms: _412  and  _413
REMARK  167  A    between atoms: _415  and  _417
REMARK  168  A    between atoms: _417  and  _418
REMARK  169  A    between atoms: _417  and  _420
REMARK  170  A    between atoms: _420  and  _421
REMARK  171  A    between atoms: _427  and  _429
REMARK  172  A    between atoms: _429  and  _430
REMARK  173  A    between atoms: _429  and  _432
REMARK  174  A    between atoms: _432  and  _433
REMARK  175  A    between atoms: _436  and  _438
REMARK  176  A    between atoms: _438  and  _439
REMARK  177  A    between atoms: _438  and  _441
REMARK  178  A    between atoms: _444  and  _446
REMARK  179  A    between atoms: _446  and  _447
REMARK  180  A    between atoms: _446  and  _449
REMARK  181  A    between atoms: _449  and  _450
REMARK  182  A    between atoms: _452  and  _454
REMARK  183  A    between atoms: _454  and  _455
REMARK  184  A    between atoms: _454  and  _457
REMARK  185  A    between atoms: _457  and  _458
REMARK  186  A    between atoms: _468  and  _470
REMARK  187  A    between atoms: _470  and  _471
REMARK  188  A    between atoms: _473  and  _475
REMARK  189  A    between atoms: _475  and  _476
REMARK  190  A    between atoms: _475  and  _478
REMARK  191  A    between atoms: _478  and  _479
REMARK  192  A    between atoms: _479  and  _480
REMARK  193  A    between atoms: _483  and  _485
REMARK  194  A    between atoms: _485  and  _486
REMARK  195  A    between atoms: _488  and  _490
REMARK  196  A    between atoms: _490  and  _491
REMARK  197  A    between atoms: _490  and  _493
REMARK  198  A    between atoms: _493  and  _494
REMARK  199  A    between atoms: _495  and  _497
REMARK  200  A    between atoms: _497  and  _498
REMARK  201  A    between atoms: _497  and  _500
REMARK  202  A    between atoms: _500  and  _501
REMARK  203  A    between atoms: _504  and  _506
REMARK  204  A    between atoms: _506  and  _507
REMARK  205  A    between atoms: _506  and  _509
REMARK  206  A    between atoms: _509  and  _510
REMARK  207  A    between atoms: _510  and  _511
REMARK  208  A    between atoms: _511  and  _512
REMARK  209  A    between atoms: _521  and  _523
REMARK  210  A    between atoms: _523  and  _524
REMARK  211  A    between atoms: _523  and  _526
REMARK  212  A    between atoms: _526  and  _527
REMARK  213  A    between atoms: _527  and  _528
REMARK  214  A    between atoms: _528  and  _529
REMARK  215  A    between atoms: _529  and  _530
REMARK  216  A    between atoms: _534  and  _536
REMARK  217  A    between atoms: _536  and  _537
REMARK  218  A    between atoms: _536  and  _539
REMARK  219  A    between atoms: _539  and  _540
REMARK  220  A    between atoms: _545  and  _546
REMARK  221  A    between atoms: _548  and  _550
REMARK  222  A    between atoms: _550  and  _551
REMARK  223  A    between atoms: _553  and  _555
REMARK  224  A    between atoms: _555  and  _556
REMARK  225  A    between atoms: _555  and  _558
REMARK  226  A    between atoms: _558  and  _559
REMARK  227  A    between atoms: _565  and  _567
REMARK  228  A    between atoms: _567  and  _568
REMARK  229  A    between atoms: _567  and  _570
REMARK  230  A    between atoms: _570  and  _571
REMARK  231  A    between atoms: _576  and  _577
REMARK  232  A    between atoms: _579  and  _581
REMARK  233  A    between atoms: _581  and  _582
REMARK  234  A    between atoms: _581  and  _584
REMARK  235  A    between atoms: _584  and  _585
REMARK                            x       y       z     vdW  Elec       q    Type
REMARK                         _______ _______ _______ _____ _____    ______ ____
ROOT
ATOM      1  CA  ARG A   4      29.268 -14.109  23.600  0.00  0.00    +0.149 C 
ENDROOT
BRANCH   1   3
ATOM      2  C   TRP A   3      27.665 -12.647  22.521  0.00  0.00    +0.241 C 
ATOM      3  N   ARG A   4      28.806 -12.794  23.182  0.00  0.00    -0.297 N 
ATOM      4  H   ARG A   4      29.380 -11.956  23.405  0.00  0.00    +0.150 HD
ATOM      5  O   TRP A   3      26.931 -13.593  22.236  0.00  0.00    -0.273 OA
BRANCH   2   6
ATOM      6  CA  TRP A   3      27.302 -11.224  22.115  0.00  0.00    +0.153 C 
BRANCH   6   9
ATOM      7  C   ASN A   2      27.701  -9.822  24.061  0.00  0.00    +0.241 C 
ATOM      8  O   ASN A   2      26.698 -10.245  24.616  0.00  0.00    -0.273 OA
ATOM      9  N   TRP A   3      28.073 -10.228  22.854  0.00  0.00    -0.297 N 
ATOM     10  H   TRP A   3      28.932  -9.828  22.425  0.00  0.00    +0.150 HD
BRANCH   7  11
ATOM     11  CA  ASN A   2      28.595  -8.785  24.740  0.00  0.00    +0.158 C 
BRANCH  11  13
ATOM     12  C   TYR A   1      28.945  -6.704  23.523  0.00  0.00    +0.239 C 
ATOM     13  N   ASN A   2      28.238  -7.411  24.396  0.00  0.00    -0.297 N 
ATOM     14  H   ASN A   2      27.408  -6.975  24.847  0.00  0.00    +0.150 HD
ATOM     15  O   TYR A   1      29.923  -7.161  22.931  0.00  0.00    -0.274 OA
BRANCH  12  16
ATOM     16  CA  TYR A   1      28.496  -5.262  23.288  0.00  0.00    +0.149 C 
BRANCH  16  17
ATOM     17  N   TYR A   1      29.681  -4.435  23.503  0.00  0.00    -0.238 NA
ATOM     18  H   TYR A   1      30.040  -3.856  22.717  0.00  0.00    +0.142 HD
ENDBRANCH  16  17
BRANCH  16  19
ATOM     19  CB  TYR A   1      27.997  -5.064  21.854  0.00  0.00    +0.053 C 
BRANCH  19  20
ATOM     20  CG  TYR A   1      27.190  -6.201  21.268  0.00  0.00    -0.020 A 
ATOM     21  CD2 TYR A   1      26.029  -6.658  21.879  0.00  0.00    -0.001 A 
ATOM     22  CE2 TYR A   1      25.268  -7.667  21.299  0.00  0.00    +0.036 A 
ATOM     23  CZ  TYR A   1      25.677  -8.218  20.100  0.00  0.00    +0.134 A 
ATOM     24  CE1 TYR A   1      26.823  -7.777  19.489  0.00  0.00    +0.036 A 
ATOM     25  CD1 TYR A   1      27.570  -6.781  20.070  0.00  0.00    -0.001 A 
BRANCH  23  26
ATOM     26  OH  TYR A   1      24.937  -9.209  19.498  0.00  0.00    -0.506 OA
ATOM     27  HH  TYR A   1      24.640  -8.901  18.605  0.00  0.00    +0.292 HD
ENDBRANCH  23  26
ENDBRANCH  19  20
ENDBRANCH  16  19
ENDBRANCH  12  16
ENDBRANCH  11  13
BRANCH  11  28
ATOM     28  CB  ASN A   2      28.530  -8.960  26.262  0.00  0.00    +0.114 C 
BRANCH  28  29
ATOM     29  CG  ASN A   2      29.126 -10.289  26.736  0.00  0.00    +0.222 C 
ATOM     30  ND2 ASN A   2      29.418 -10.377  28.030  0.00  0.00    -0.329 N 
ATOM     31 HD21 ASN A   2      29.253  -9.564  28.657  0.00  0.00    +0.145 HD
ATOM     32 HD22 ASN A   2      29.812 -11.259  28.415  0.00  0.00    +0.145 HD
ATOM     33  OD1 ASN A   2      29.302 -11.220  25.952  0.00  0.00    -0.275 OA
ENDBRANCH  28  29
ENDBRANCH  11  28
ENDBRANCH   7  11
ENDBRANCH   6   9
BRANCH   6  34
ATOM     34  CB  TRP A   3      27.542 -11.074  20.615  0.00  0.00    +0.057 C 
BRANCH  34  35
ATOM     35  CG  TRP A   3      28.996 -11.031  20.224  0.00  0.00    -0.002 A 
ATOM     36  CD1 TRP A   3      29.764  -9.915  20.048  0.00  0.00    +0.068 A 
ATOM     37  NE1 TRP A   3      31.037 -10.270  19.666  0.00  0.00    -0.352 N 
ATOM     38  CE2 TRP A   3      31.114 -11.636  19.592  0.00  0.00    +0.056 A 
ATOM     39  CZ2 TRP A   3      32.189 -12.459  19.250  0.00  0.00    +0.017 A 
ATOM     40  CH2 TRP A   3      31.977 -13.812  19.261  0.00  0.00    +0.001 A 
ATOM     41  CZ3 TRP A   3      30.730 -14.356  19.602  0.00  0.00    +0.000 A 
ATOM     42  CE3 TRP A   3      29.660 -13.538  19.942  0.00  0.00    +0.001 A 
ATOM     43  HE1 TRP A   3      31.815  -9.609  19.466  0.00  0.00    +0.166 HD
ATOM     44  CD2 TRP A   3      29.847 -12.152  19.939  0.00  0.00    +0.013 A 
ENDBRANCH  34  35
ENDBRANCH   6  34
ENDBRANCH   2   6
ENDBRANCH   1   3
BRANCH   1  45
ATOM     45  C   ARG A   4      28.461 -14.725  24.729  0.00  0.00    +0.241 C 
ATOM     46  N   GLU A   5      28.001 -13.898  25.658  0.00  0.00    -0.297 N 
ATOM     47  H   GLU A   5      28.151 -12.873  25.567  0.00  0.00    +0.150 HD
ATOM     48  O   ARG A   4      28.238 -15.936  24.750  0.00  0.00    -0.273 OA
BRANCH  46  49
ATOM     49  CA  GLU A   5      27.287 -14.433  26.802  0.00  0.00    +0.149 C 
BRANCH  49  50
ATOM     50  C   GLU A   5      25.815 -14.098  26.986  0.00  0.00    +0.241 C 
ATOM     51  N   ASN A   6      25.527 -12.827  27.246  0.00  0.00    -0.297 N 
ATOM     52  H   ASN A   6      26.288 -12.119  27.231  0.00  0.00    +0.150 HD
ATOM     53  O   GLU A   5      24.957 -14.975  26.890  0.00  0.00    -0.273 OA
BRANCH  51  54
ATOM     54  CA  ASN A   6      24.163 -12.405  27.552  0.00  0.00    +0.158 C 
BRANCH  54  55
ATOM     55  C   ASN A   6      23.628 -11.173  26.828  0.00  0.00    +0.241 C 
ATOM     56  O   ASN A   6      22.678 -10.553  27.301  0.00  0.00    -0.273 OA
ATOM     57  N   LEU A   7      24.217 -10.815  25.695  0.00  0.00    -0.297 N 
ATOM     58  H   LEU A   7      25.005 -11.385  25.327  0.00  0.00    +0.150 HD
BRANCH  57  59
ATOM     59  CA  LEU A   7      23.778  -9.634  24.954  0.00  0.00    +0.149 C 
BRANCH  59  60
ATOM     60  C   LEU A   7      23.830  -8.351  25.785  0.00  0.00    +0.241 C 
ATOM     61  N   ASP A   8      24.783  -8.273  26.709  0.00  0.00    -0.298 N 
ATOM     62  H   ASP A   8      25.432  -9.073  26.850  0.00  0.00    +0.150 HD
ATOM     63  O   LEU A   7      23.013  -7.445  25.601  0.00  0.00    -0.273 OA
BRANCH  61  64
ATOM     64  CA  ASP A   8      24.925  -7.074  27.526  0.00  0.00    +0.148 C 
BRANCH  64  65
ATOM     65  C   ASP A   8      25.281  -5.935  26.571  0.00  0.00    +0.227 C 
ATOM     66  O   ASP A   8      26.050  -6.132  25.631  0.00  0.00    -0.286 OA
ENDBRANCH  64  65
BRANCH  64  67
ATOM     67  CB  ASP A   8      26.033  -7.280  28.565  0.00  0.00    +0.142 C 
BRANCH  67  68
ATOM     68  CG  ASP A   8      26.123  -6.141  29.564  0.00  0.00    +0.367 C 
ATOM     69  OD2 ASP A   8      27.243  -5.844  30.030  0.00  0.00    -0.246 OA
ATOM     70  OD1 ASP A   8      25.076  -5.552  29.898  0.00  0.00    -0.246 OA
ENDBRANCH  67  68
ENDBRANCH  64  67
ENDBRANCH  61  64
ENDBRANCH  59  60
BRANCH  59  71
ATOM     71  CB  LEU A   7      22.361  -9.834  24.406  0.00  0.00    +0.029 C 
BRANCH  71  72
ATOM     72  CG  LEU A   7      22.251 -10.879  23.294  0.00  0.00    +0.002 C 
ATOM     73  CD2 LEU A   7      20.810 -10.925  22.758  0.00  0.00    +0.000 C 
ATOM     74  CD1 LEU A   7      23.222 -10.529  22.172  0.00  0.00    +0.000 C 
ENDBRANCH  71  72
ENDBRANCH  59  71
ENDBRANCH  57  59
ENDBRANCH  54  55
BRANCH  54  75
ATOM     75  CB  ASN A   6      24.085 -12.139  29.049  0.00  0.00    +0.114 C 
BRANCH  75  76
ATOM     76  CG  ASN A   6      25.072 -11.055  29.485  0.00  0.00    +0.222 C 
ATOM     77  ND2 ASN A   6      25.095 -10.748  30.774  0.00  0.00    -0.329 N 
ATOM     78 HD21 ASN A   6      24.461 -11.238  31.437  0.00  0.00    +0.145 HD
ATOM     79 HD22 ASN A   6      25.747 -10.017  31.123  0.00  0.00    +0.145 HD
ATOM     80  OD1 ASN A   6      25.802 -10.505  28.660  0.00  0.00    -0.275 OA
ENDBRANCH  75  76
ENDBRANCH  54  75
ENDBRANCH  51  54
ENDBRANCH  49  50
BRANCH  49  81
ATOM     81  CB  GLU A   5      28.026 -14.038  28.087  0.00  0.00    +0.041 C 
BRANCH  81  82
ATOM     82  CG  GLU A   5      27.508 -14.732  29.343  0.00  0.00    +0.116 C 
BRANCH  82  83
ATOM     83  CD  GLU A   5      27.914 -14.007  30.629  0.00  0.00    +0.365 C 
ATOM     84  OE2 GLU A   5      27.165 -14.100  31.626  0.00  0.00    -0.246 OA
ATOM     85  OE1 GLU A   5      28.982 -13.357  30.642  0.00  0.00    -0.246 OA
ENDBRANCH  82  83
ENDBRANCH  81  82
ENDBRANCH  49  81
ENDBRANCH  46  49
ENDBRANCH   1  45
BRANCH   1  86
ATOM     86  CB  ARG A   4      30.736 -14.038  24.029  0.00  0.00    +0.033 C 
BRANCH  86  87
ATOM     87  CG  ARG A   4      31.702 -13.783  22.899  0.00  0.00    +0.045 C 
BRANCH  87  88
ATOM     88  CD  ARG A   4      33.132 -13.669  23.403  0.00  0.00    +0.174 C 
BRANCH  88  89
ATOM     89  NE  ARG A   4      34.079 -13.985  22.339  0.00  0.00    -0.265 N 
ATOM     90  CZ  ARG A   4      34.350 -15.222  21.933  0.00  0.00    +0.342 C 
ATOM     91  NH2 ARG A   4      33.755 -16.258  22.508  0.00  0.00    -0.292 N 
ATOM     92 HH21 ARG A   4      33.074 -16.105  23.279  0.00  0.00    +0.255 HD
ATOM     93 HH22 ARG A   4      33.969 -17.224  22.188  0.00  0.00    +0.255 HD
ATOM     94  NH1 ARG A   4      35.204 -15.423  20.939  0.00  0.00    -0.292 N 
ATOM     95 HH11 ARG A   4      35.415 -16.391  20.622  0.00  0.00    +0.255 HD
ATOM     96 HH12 ARG A   4      35.663 -14.613  20.476  0.00  0.00    +0.255 HD
ATOM     97  HE  ARG A   4      34.571 -13.197  21.871  0.00  0.00    +0.259 HD
ENDBRANCH  88  89
ENDBRANCH  87  88
ENDBRANCH  86  87
ENDBRANCH   1  86
TORSDOF 36
REMARK  Name = ../refined-set-2016/1z71/1z71_pocket.pdb
REMARK  235 active torsions:
REMARK  status: ('A' for Active; 'I' for Inactive)
REMARK    1  A    between atoms: _1  and  _5
REMARK    2  A    between atoms: _5  and  _6
REMARK    3  A    between atoms: _5  and  _8
REMARK    4  A    between atoms: _8  and  _9
REMARK    5  A    between atoms: _12  and  _14
REMARK    6  A    between atoms: _14  and  _15
REMARK    7  A    between atoms: _14  and  _17
REMARK    8  A    between atoms: _20  and  _22
REMARK    9  A    between atoms: _22  and  _23
REMARK   10  A    between atoms: _22  and  _25
REMARK   11  A    between atoms: _25  and  _26
REMARK   12  A    between atoms: _26  and  _61
REMARK   13  A    between atoms: _27  and  _29
REMARK   14  A    between atoms: _29  and  _30
REMARK   15  A    between atoms: _32  and  _34
REMARK   16  A    between atoms: _34  and  _35
REMARK   17  A    between atoms: _38  and  _40
REMARK   18  A    between atoms: _40  and  _41
REMARK   19  A    between atoms: _44  and  _46
REMARK   20  A    between atoms: _46  and  _47
REMARK   21  A    between atoms: _46  and  _49
REMARK   22  A    between atoms: _49  and  _50
REMARK   23  A    between atoms: _55  and  _57
REMARK   24  A    between atoms: _57  and  _58
REMARK   25  A    between atoms: _57  and  _60
REMARK   26  A    between atoms: _60  and  _61
REMARK   27  A    between atoms: _62  and  _64
REMARK   28  A    between atoms: _64  and  _65
REMARK   29  A    between atoms: _64  and  _67
REMARK   30  A    between atoms: _67  and  _68
REMARK   31  A    between atoms: _71  and  _73
REMARK   32  A    between atoms: _73  and  _74
REMARK   33  A    between atoms: _73  and  _76
REMARK   34  A    between atoms: _76  and  _77
REMARK   35  A    between atoms: _82  and  _83
REMARK   36  A    between atoms: _86  and  _87
REMARK   37  A    between atoms: _92  and  _94
REMARK   38  A    between atoms: _94  and  _95
REMARK   39  A    between atoms: _94  and  _97
REMARK   40  A    between atoms: _97  and  _98
REMARK   41  A    between atoms: _108  and  _110
REMARK   42  A    between atoms: _110  and  _111
REMARK   43  A    between atoms: _110  and  _113
REMARK   44  A    between atoms: _113  and  _114
REMARK   45  A    between atoms: _114  and  _115
REMARK   46  A    between atoms: _115  and  _116
REMARK   47  A    between atoms: _116  and  _117
REMARK   48  A    between atoms: _121  and  _123
REMARK   49  A    between atoms: _123  and  _124
REMARK   50  A    between atoms: _123  and  _126
REMARK   51  A    between atoms: _126  and  _127
REMARK   52  A    between atoms: _132  and  _133
REMARK   53  A    between atoms: _135  and  _137
REMARK   54  A    between atoms: _137  and  _138
REMARK   55  A    between atoms: _137  and  _140
REMARK   56  A    between atoms: _140  and  _141
REMARK   57  A    between atoms: _146  and  _148
REMARK   58  A    between atoms: _148  and  _149
REMARK   59  A    between atoms: _148  and  _151
REMARK   60  A    between atoms: _151  and  _152
REMARK   61  A    between atoms: _162  and  _164
REMARK   62  A    between atoms: _164  and  _165
REMARK   63  A    between atoms: _164  and  _167
REMARK   64  A    between atoms: _167  and  _168
REMARK   65  A    between atoms: _168  and  _169
REMARK   66  A    between atoms: _169  and  _170
REMARK   67  A    between atoms: _179  and  _181
REMARK   68  A    between atoms: _181  and  _182
REMARK   69  A    between atoms: _181  and  _184
REMARK   70  A    between atoms: _184  and  _185
REMARK   71  A    between atoms: _185  and  _186
REMARK   72  A    between atoms: _189  and  _191
REMARK   73  A    between atoms: _191  and  _192
REMARK   74  A    between atoms: _191  and  _194
REMARK   75  A    between atoms: _194  and  _195
REMARK   76  A    between atoms: _200  and  _202
REMARK   77  A    between atoms: _202  and  _203
REMARK   78  A    between atoms: _202  and  _205
REMARK   79  A    between atoms: _205  and  _206
REMARK   80  A    between atoms: _209  and  _211
REMARK   81  A    between atoms: _211  and  _212
REMARK   82  A    between atoms: _211  and  _214
REMARK   83  A    between atoms: _214  and  _215
REMARK   84  A    between atoms: _218  and  _220
REMARK   85  A    between atoms: _220  and  _221
REMARK   86  A    between atoms: _220  and  _223
REMARK   87  A    between atoms: _223  and  _224
REMARK   88  A    between atoms: _227  and  _229
REMARK   89  A    between atoms: _229  and  _230
REMARK   90  A    between atoms: _229  and  _232
REMARK   91  A    between atoms: _235  and  _237
REMARK   92  A    between atoms: _237  and  _238
REMARK   93  A    between atoms: _240  and  _242
REMARK   94  A    between atoms: _242  and  _243
REMARK   95  A    between atoms: _242  and  _245
REMARK   96  A    between atoms: _245  and  _246
REMARK   97  A    between atoms: _251  and  _253
REMARK   98  A    between atoms: _253  and  _254
REMARK   99  A    between atoms: _253  and  _256
REMARK  100  A    between atoms: _256  and  _257
REMARK  101  A    between atoms: _260  and  _262
REMARK  102  A    between atoms: _262  and  _263
REMARK  103  A    between atoms: _262  and  _265
REMARK  104  A    between atoms: _265  and  _266
REMARK  105  A    between atoms: _269  and  _271
REMARK  106  A    between atoms: _271  and  _272
REMARK  107  A    between atoms: _271  and  _274
REMARK  108  A    between atoms: _274  and  _275
REMARK  109  A    between atoms: _275  and  _276
REMARK  110  A    between atoms: _276  and  _277
REMARK  111  A    between atoms: _286  and  _288
REMARK  112  A    between atoms: _288  and  _289
REMARK  113  A    between atoms: _288  and  _291
REMARK  114  A    between atoms: _291  and  _292
REMARK  115  A    between atoms: _295  and  _297
REMARK  116  A    between atoms: _297  and  _298
REMARK  117  A    between atoms: _297  and  _300
REMARK  118  A    between atoms: _300  and  _301
REMARK  119  A    between atoms: _301  and  _302
REMARK  120  A    between atoms: _302  and  _303
REMARK  121  A    between atoms: _312  and  _314
REMARK  122  A    between atoms: _314  and  _315
REMARK  123  A    between atoms: _314  and  _317
REMARK  124  A    between atoms: _317  and  _318
REMARK  125  A    between atoms: _318  and  _319
REMARK  126  A    between atoms: _321  and  _323
REMARK  127  A    between atoms: _323  and  _324
REMARK  128  A    between atoms: _323  and  _326
REMARK  129  A    between atoms: _326  and  _327
REMARK  130  A    between atoms: _333  and  _335
REMARK  131  A    between atoms: _335  and  _336
REMARK  132  A    between atoms: _335  and  _338
REMARK  133  A    between atoms: _340  and  _342
REMARK  134  A    between atoms: _342  and  _343
REMARK  135  A    between atoms: _346  and  _348
REMARK  136  A    between atoms: _348  and  _349
REMARK  137  A    between atoms: _351  and  _353
REMARK  138  A    between atoms: _353  and  _354
REMARK  139  A    between atoms: _353  and  _356
REMARK  140  A    between atoms: _356  and  _357
REMARK  141  A    between atoms: _360  and  _362
REMARK  142  A    between atoms: _362  and  _363
REMARK  143  A    between atoms: _366  and  _368
REMARK  144  A    between atoms: _368  and  _369
REMARK  145  A    between atoms: _368  and  _371
REMARK  146  A    between atoms: _371  and  _372
REMARK  147  A    between atoms: _372  and  _494
REMARK  148  A    between atoms: _373  and  _375
REMARK  149  A    between atoms: _375  and  _376
REMARK  150  A    between atoms: _375  and  _378
REMARK  151  A    between atoms: _378  and  _379
REMARK  152  A    between atoms: _379  and  _380
REMARK  153  A    between atoms: _383  and  _385
REMARK  154  A    between atoms: _385  and  _386
REMARK  155  A    between atoms: _388  and  _390
REMARK  156  A    between atoms: _390  and  _391
REMARK  157  A    between atoms: _390  and  _393
REMARK  158  A    between atoms: _393  and  _394
REMARK  159  A    between atoms: _397  and  _399
REMARK  160  A    between atoms: _399  and  _400
REMARK  161  A    between atoms: _399  and  _402
REMARK  162  A    between atoms: _402  and  _403
REMARK  163  A    between atoms: _405  and  _407
REMARK  164  A    between atoms: _407  and  _408
REMARK  165  A    between atoms: _410  and  _412
REMARK  166  A    between atoms: _412  and  _413
REMARK  167  A    between atoms: _415  and  _417
REMARK  168  A    between atoms: _417  and  _418
REMARK  169  A    between atoms: _417  and  _420
REMARK  170  A    between atoms: _420  and  _421
REMARK  171  A    between atoms: _427  and  _429
REMARK  172  A    between atoms: _429  and  _430
REMARK  173  A    between atoms: _429  and  _432
REMARK  174  A    between atoms: _432  and  _433
REMARK  175  A    between atoms: _436  and  _438
REMARK  176  A    between atoms: _438  and  _439
REMARK  177  A    between atoms: _438  and  _441
REMARK  178  A    between atoms: _444  and  _446
REMARK  179  A    between atoms: _446  and  _447
REMARK  180  A    between atoms: _446  and  _449
REMARK  181  A    between atoms: _449  and  _450
REMARK  182  A    between atoms: _452  and  _454
REMARK  183  A    between atoms: _454  and  _455
REMARK  184  A    between atoms: _454  and  _457
REMARK  185  A    between atoms: _457  and  _458
REMARK  186  A    between atoms: _468  and  _470
REMARK  187  A    between atoms: _470  and  _471
REMARK  188  A    between atoms: _473  and  _475
REMARK  189  A    between atoms: _475  and  _476
REMARK  190  A    between atoms: _475  and  _478
REMARK  191  A    between atoms: _478  and  _479
REMARK  192  A    between atoms: _479  and  _480
REMARK  193  A    between atoms: _483  and  _485
REMARK  194  A    between atoms: _485  and  _486
REMARK  195  A    between atoms: _488  and  _490
REMARK  196  A    between atoms: _490  and  _491
REMARK  197  A    between atoms: _490  and  _493
REMARK  198  A    between atoms: _493  and  _494
REMARK  199  A    between atoms: _495  and  _497
REMARK  200  A    between atoms: _497  and  _498
REMARK  201  A    between atoms: _497  and  _500
REMARK  202  A    between atoms: _500  and  _501
REMARK  203  A    between atoms: _504  and  _506
REMARK  204  A    between atoms: _506  and  _507
REMARK  205  A    between atoms: _506  and  _509
REMARK  206  A    between atoms: _509  and  _510
REMARK  207  A    between atoms: _510  and  _511
REMARK  208  A    between atoms: _511  and  _512
REMARK  209  A    between atoms: _521  and  _523
REMARK  210  A    between atoms: _523  and  _524
REMARK  211  A    between atoms: _523  and  _526
REMARK  212  A    between atoms: _526  and  _527
REMARK  213  A    between atoms: _527  and  _528
REMARK  214  A    between atoms: _528  and  _529
REMARK  215  A    between atoms: _529  and  _530
REMARK  216  A    between atoms: _534  and  _536
REMARK  217  A    between atoms: _536  and  _537
REMARK  218  A    between atoms: _536  and  _539
REMARK  219  A    between atoms: _539  and  _540
REMARK  220  A    between atoms: _545  and  _546
REMARK  221  A    between atoms: _548  and  _550
REMARK  222  A    between atoms: _550  and  _551
REMARK  223  A    between atoms: _553  and  _555
REMARK  224  A    between atoms: _555  and  _556
REMARK  225  A    between atoms: _555  and  _558
REMARK  226  A    between atoms: _558  and  _559
REMARK  227  A    between atoms: _565  and  _567
REMARK  228  A    between atoms: _567  and  _568
REMARK  229  A    between atoms: _567  and  _570
REMARK  230  A    between atoms: _570  and  _571
REMARK  231  A    between atoms: _576  and  _577
REMARK  232  A    between atoms: _579  and  _581
REMARK  233  A    between atoms: _581  and  _582
REMARK  234  A    between atoms: _581  and  _584
REMARK  235  A    between atoms: _584  and  _585
REMARK                            x       y       z     vdW  Elec       q    Type
REMARK                         _______ _______ _______ _____ _____    ______ ____
ROOT
ATOM      1  CA  ASP A   1      22.766  -4.690  23.018  0.00  0.00    +0.144 C 
ENDROOT
BRANCH   1   2
ATOM      2  N   ASP A   1      23.314  -4.354  24.333  0.00  0.00    -0.239 NA
ATOM      3  H   ASP A   1      22.724  -4.523  25.173  0.00  0.00    +0.142 HD
ENDBRANCH   1   2
BRANCH   1   4
ATOM      4  C   ASP A   1      22.227  -3.428  22.360  0.00  0.00    +0.225 C 
ATOM      5  O   ASP A   1      21.018  -3.193  22.329  0.00  0.00    -0.287 OA
ENDBRANCH   1   4
BRANCH   1   6
ATOM      6  CB  ASP A   1      21.651  -5.714  23.200  0.00  0.00    +0.139 C 
BRANCH   6   7
ATOM      7  CG  ASP A   1      21.232  -6.362  21.911  0.00  0.00    +0.367 C 
ATOM      8  OD2 ASP A   1      20.257  -7.134  21.955  0.00  0.00    -0.246 OA
ATOM      9  OD1 ASP A   1      21.868  -6.119  20.860  0.00  0.00    -0.246 OA
ENDBRANCH   6   7
ENDBRANCH   1   6
TORSDOF 4
REMARK  Name = ../refined-set-2016/1z71/1z71_pocket.pdb
REMARK  235 active torsions:
REMARK  status: ('A' for Active; 'I' for Inactive)
REMARK    1  A    between atoms: _1  and  _5
REMARK    2  A    between atoms: _5  and  _6
REMARK    3  A    between atoms: _5  and  _8
REMARK    4  A    between atoms: _8  and  _9
REMARK    5  A    between atoms: _12  and  _14
REMARK    6  A    between atoms: _14  and  _15
REMARK    7  A    between atoms: _14  and  _17
REMARK    8  A    between atoms: _20  and  _22
REMARK    9  A    between atoms: _22  and  _23
REMARK   10  A    between atoms: _22  and  _25
REMARK   11  A    between atoms: _25  and  _26
REMARK   12  A    between atoms: _26  and  _61
REMARK   13  A    between atoms: _27  and  _29
REMARK   14  A    between atoms: _29  and  _30
REMARK   15  A    between atoms: _32  and  _34
REMARK   16  A    between atoms: _34  and  _35
REMARK   17  A    between atoms: _38  and  _40
REMARK   18  A    between atoms: _40  and  _41
REMARK   19  A    between atoms: _44  and  _46
REMARK   20  A    between atoms: _46  and  _47
REMARK   21  A    between atoms: _46  and  _49
REMARK   22  A    between atoms: _49  and  _50
REMARK   23  A    between atoms: _55  and  _57
REMARK   24  A    between atoms: _57  and  _58
REMARK   25  A    between atoms: _57  and  _60
REMARK   26  A    between atoms: _60  and  _61
REMARK   27  A    between atoms: _62  and  _64
REMARK   28  A    between atoms: _64  and  _65
REMARK   29  A    between atoms: _64  and  _67
REMARK   30  A    between atoms: _67  and  _68
REMARK   31  A    between atoms: _71  and  _73
REMARK   32  A    between atoms: _73  and  _74
REMARK   33  A    between atoms: _73  and  _76
REMARK   34  A    between atoms: _76  and  _77
REMARK   35  A    between atoms: _82  and  _83
REMARK   36  A    between atoms: _86  and  _87
REMARK   37  A    between atoms: _92  and  _94
REMARK   38  A    between atoms: _94  and  _95
REMARK   39  A    between atoms: _94  and  _97
REMARK   40  A    between atoms: _97  and  _98
REMARK   41  A    between atoms: _108  and  _110
REMARK   42  A    between atoms: _110  and  _111
REMARK   43  A    between atoms: _110  and  _113
REMARK   44  A    between atoms: _113  and  _114
REMARK   45  A    between atoms: _114  and  _115
REMARK   46  A    between atoms: _115  and  _116
REMARK   47  A    between atoms: _116  and  _117
REMARK   48  A    between atoms: _121  and  _123
REMARK   49  A    between atoms: _123  and  _124
REMARK   50  A    between atoms: _123  and  _126
REMARK   51  A    between atoms: _126  and  _127
REMARK   52  A    between atoms: _132  and  _133
REMARK   53  A    between atoms: _135  and  _137
REMARK   54  A    between atoms: _137  and  _138
REMARK   55  A    between atoms: _137  and  _140
REMARK   56  A    between atoms: _140  and  _141
REMARK   57  A    between atoms: _146  and  _148
REMARK   58  A    between atoms: _148  and  _149
REMARK   59  A    between atoms: _148  and  _151
REMARK   60  A    between atoms: _151  and  _152
REMARK   61  A    between atoms: _162  and  _164
REMARK   62  A    between atoms: _164  and  _165
REMARK   63  A    between atoms: _164  and  _167
REMARK   64  A    between atoms: _167  and  _168
REMARK   65  A    between atoms: _168  and  _169
REMARK   66  A    between atoms: _169  and  _170
REMARK   67  A    between atoms: _179  and  _181
REMARK   68  A    between atoms: _181  and  _182
REMARK   69  A    between atoms: _181  and  _184
REMARK   70  A    between atoms: _184  and  _185
REMARK   71  A    between atoms: _185  and  _186
REMARK   72  A    between atoms: _189  and  _191
REMARK   73  A    between atoms: _191  and  _192
REMARK   74  A    between atoms: _191  and  _194
REMARK   75  A    between atoms: _194  and  _195
REMARK   76  A    between atoms: _200  and  _202
REMARK   77  A    between atoms: _202  and  _203
REMARK   78  A    between atoms: _202  and  _205
REMARK   79  A    between atoms: _205  and  _206
REMARK   80  A    between atoms: _209  and  _211
REMARK   81  A    between atoms: _211  and  _212
REMARK   82  A    between atoms: _211  and  _214
REMARK   83  A    between atoms: _214  and  _215
REMARK   84  A    between atoms: _218  and  _220
REMARK   85  A    between atoms: _220  and  _221
REMARK   86  A    between atoms: _220  and  _223
REMARK   87  A    between atoms: _223  and  _224
REMARK   88  A    between atoms: _227  and  _229
REMARK   89  A    between atoms: _229  and  _230
REMARK   90  A    between atoms: _229  and  _232
REMARK   91  A    between atoms: _235  and  _237
REMARK   92  A    between atoms: _237  and  _238
REMARK   93  A    between atoms: _240  and  _242
REMARK   94  A    between atoms: _242  and  _243
REMARK   95  A    between atoms: _242  and  _245
REMARK   96  A    between atoms: _245  and  _246
REMARK   97  A    between atoms: _251  and  _253
REMARK   98  A    between atoms: _253  and  _254
REMARK   99  A    between atoms: _253  and  _256
REMARK  100  A    between atoms: _256  and  _257
REMARK  101  A    between atoms: _260  and  _262
REMARK  102  A    between atoms: _262  and  _263
REMARK  103  A    between atoms: _262  and  _265
REMARK  104  A    between atoms: _265  and  _266
REMARK  105  A    between atoms: _269  and  _271
REMARK  106  A    between atoms: _271  and  _272
REMARK  107  A    between atoms: _271  and  _274
REMARK  108  A    between atoms: _274  and  _275
REMARK  109  A    between atoms: _275  and  _276
REMARK  110  A    between atoms: _276  and  _277
REMARK  111  A    between atoms: _286  and  _288
REMARK  112  A    between atoms: _288  and  _289
REMARK  113  A    between atoms: _288  and  _291
REMARK  114  A    between atoms: _291  and  _292
REMARK  115  A    between atoms: _295  and  _297
REMARK  116  A    between atoms: _297  and  _298
REMARK  117  A    between atoms: _297  and  _300
REMARK  118  A    between atoms: _300  and  _301
REMARK  119  A    between atoms: _301  and  _302
REMARK  120  A    between atoms: _302  and  _303
REMARK  121  A    between atoms: _312  and  _314
REMARK  122  A    between atoms: _314  and  _315
REMARK  123  A    between atoms: _314  and  _317
REMARK  124  A    between atoms: _317  and  _318
REMARK  125  A    between atoms: _318  and  _319
REMARK  126  A    between atoms: _321  and  _323
REMARK  127  A    between atoms: _323  and  _324
REMARK  128  A    between atoms: _323  and  _326
REMARK  129  A    between atoms: _326  and  _327
REMARK  130  A    between atoms: _333  and  _335
REMARK  131  A    between atoms: _335  and  _336
REMARK  132  A    between atoms: _335  and  _338
REMARK  133  A    between atoms: _340  and  _342
REMARK  134  A    between atoms: _342  and  _343
REMARK  135  A    between atoms: _346  and  _348
REMARK  136  A    between atoms: _348  and  _349
REMARK  137  A    between atoms: _351  and  _353
REMARK  138  A    between atoms: _353  and  _354
REMARK  139  A    between atoms: _353  and  _356
REMARK  140  A    between atoms: _356  and  _357
REMARK  141  A    between atoms: _360  and  _362
REMARK  142  A    between atoms: _362  and  _363
REMARK  143  A    between atoms: _366  and  _368
REMARK  144  A    between atoms: _368  and  _369
REMARK  145  A    between atoms: _368  and  _371
REMARK  146  A    between atoms: _371  and  _372
REMARK  147  A    between atoms: _372  and  _494
REMARK  148  A    between atoms: _373  and  _375
REMARK  149  A    between atoms: _375  and  _376
REMARK  150  A    between atoms: _375  and  _378
REMARK  151  A    between atoms: _378  and  _379
REMARK  152  A    between atoms: _379  and  _380
REMARK  153  A    between atoms: _383  and  _385
REMARK  154  A    between atoms: _385  and  _386
REMARK  155  A    between atoms: _388  and  _390
REMARK  156  A    between atoms: _390  and  _391
REMARK  157  A    between atoms: _390  and  _393
REMARK  158  A    between atoms: _393  and  _394
REMARK  159  A    between atoms: _397  and  _399
REMARK  160  A    between atoms: _399  and  _400
REMARK  161  A    between atoms: _399  and  _402
REMARK  162  A    between atoms: _402  and  _403
REMARK  163  A    between atoms: _405  and  _407
REMARK  164  A    between atoms: _407  and  _408
REMARK  165  A    between atoms: _410  and  _412
REMARK  166  A    between atoms: _412  and  _413
REMARK  167  A    between atoms: _415  and  _417
REMARK  168  A    between atoms: _417  and  _418
REMARK  169  A    between atoms: _417  and  _420
REMARK  170  A    between atoms: _420  and  _421
REMARK  171  A    between atoms: _427  and  _429
REMARK  172  A    between atoms: _429  and  _430
REMARK  173  A    between atoms: _429  and  _432
REMARK  174  A    between atoms: _432  and  _433
REMARK  175  A    between atoms: _436  and  _438
REMARK  176  A    between atoms: _438  and  _439
REMARK  177  A    between atoms: _438  and  _441
REMARK  178  A    between atoms: _444  and  _446
REMARK  179  A    between atoms: _446  and  _447
REMARK  180  A    between atoms: _446  and  _449
REMARK  181  A    between atoms: _449  and  _450
REMARK  182  A    between atoms: _452  and  _454
REMARK  183  A    between atoms: _454  and  _455
REMARK  184  A    between atoms: _454  and  _457
REMARK  185  A    between atoms: _457  and  _458
REMARK  186  A    between atoms: _468  and  _470
REMARK  187  A    between atoms: _470  and  _471
REMARK  188  A    between atoms: _473  and  _475
REMARK  189  A    between atoms: _475  and  _476
REMARK  190  A    between atoms: _475  and  _478
REMARK  191  A    between atoms: _478  and  _479
REMARK  192  A    between atoms: _479  and  _480
REMARK  193  A    between atoms: _483  and  _485
REMARK  194  A    between atoms: _485  and  _486
REMARK  195  A    between atoms: _488  and  _490
REMARK  196  A    between atoms: _490  and  _491
REMARK  197  A    between atoms: _490  and  _493
REMARK  198  A    between atoms: _493  and  _494
REMARK  199  A    between atoms: _495  and  _497
REMARK  200  A    between atoms: _497  and  _498
REMARK  201  A    between atoms: _497  and  _500
REMARK  202  A    between atoms: _500  and  _501
REMARK  203  A    between atoms: _504  and  _506
REMARK  204  A    between atoms: _506  and  _507
REMARK  205  A    between atoms: _506  and  _509
REMARK  206  A    between atoms: _509  and  _510
REMARK  207  A    between atoms: _510  and  _511
REMARK  208  A    between atoms: _511  and  _512
REMARK  209  A    between atoms: _521  and  _523
REMARK  210  A    between atoms: _523  and  _524
REMARK  211  A    between atoms: _523  and  _526
REMARK  212  A    between atoms: _526  and  _527
REMARK  213  A    between atoms: _527  and  _528
REMARK  214  A    between atoms: _528  and  _529
REMARK  215  A    between atoms: _529  and  _530
REMARK  216  A    between atoms: _534  and  _536
REMARK  217  A    between atoms: _536  and  _537
REMARK  218  A    between atoms: _536  and  _539
REMARK  219  A    between atoms: _539  and  _540
REMARK  220  A    between atoms: _545  and  _546
REMARK  221  A    between atoms: _548  and  _550
REMARK  222  A    between atoms: _550  and  _551
REMARK  223  A    between atoms: _553  and  _555
REMARK  224  A    between atoms: _555  and  _556
REMARK  225  A    between atoms: _555  and  _558
REMARK  226  A    between atoms: _558  and  _559
REMARK  227  A    between atoms: _565  and  _567
REMARK  228  A    between atoms: _567  and  _568
REMARK  229  A    between atoms: _567  and  _570
REMARK  230  A    between atoms: _570  and  _571
REMARK  231  A    between atoms: _576  and  _577
REMARK  232  A    between atoms: _579  and  _581
REMARK  233  A    between atoms: _581  and  _582
REMARK  234  A    between atoms: _581  and  _584
REMARK  235  A    between atoms: _584  and  _585
REMARK                            x       y       z     vdW  Elec       q    Type
REMARK                         _______ _______ _______ _____ _____    ______ ____
ROOT
ATOM      1  CA  VAL A   1       6.618  -2.131  22.505  0.00  0.00    +0.133 C 
ENDROOT
BRANCH   1   2
ATOM      2  CB  VAL A   1       7.053  -3.507  23.046  0.00  0.00    +0.023 C 
ATOM      3  CG2 VAL A   1       7.640  -3.342  24.445  0.00  0.00    +0.002 C 
ATOM      4  CG1 VAL A   1       8.065  -4.152  22.098  0.00  0.00    +0.002 C 
ENDBRANCH   1   2
BRANCH   1   5
ATOM      5  N   VAL A   1       5.697  -1.490  23.428  0.00  0.00    -0.239 NA
ATOM      6  H   VAL A   1       4.819  -1.980  23.693  0.00  0.00    +0.142 HD
ENDBRANCH   1   5
BRANCH   1   7
ATOM      7  C   VAL A   1       5.895  -2.306  21.178  0.00  0.00    +0.224 C 
ATOM      8  O   VAL A   1       4.727  -2.681  21.153  0.00  0.00    -0.287 OA
ENDBRANCH   1   7
TORSDOF 3
REMARK  Name = ../refined-set-2016/1z71/1z71_pocket.pdb
REMARK  235 active torsions:
REMARK  status: ('A' for Active; 'I' for Inactive)
REMARK    1  A    between atoms: _1  and  _5
REMARK    2  A    between atoms: _5  and  _6
REMARK    3  A    between atoms: _5  and  _8
REMARK    4  A    between atoms: _8  and  _9
REMARK    5  A    between atoms: _12  and  _14
REMARK    6  A    between atoms: _14  and  _15
REMARK    7  A    between atoms: _14  and  _17
REMARK    8  A    between atoms: _20  and  _22
REMARK    9  A    between atoms: _22  and  _23
REMARK   10  A    between atoms: _22  and  _25
REMARK   11  A    between atoms: _25  and  _26
REMARK   12  A    between atoms: _26  and  _61
REMARK   13  A    between atoms: _27  and  _29
REMARK   14  A    between atoms: _29  and  _30
REMARK   15  A    between atoms: _32  and  _34
REMARK   16  A    between atoms: _34  and  _35
REMARK   17  A    between atoms: _38  and  _40
REMARK   18  A    between atoms: _40  and  _41
REMARK   19  A    between atoms: _44  and  _46
REMARK   20  A    between atoms: _46  and  _47
REMARK   21  A    between atoms: _46  and  _49
REMARK   22  A    between atoms: _49  and  _50
REMARK   23  A    between atoms: _55  and  _57
REMARK   24  A    between atoms: _57  and  _58
REMARK   25  A    between atoms: _57  and  _60
REMARK   26  A    between atoms: _60  and  _61
REMARK   27  A    between atoms: _62  and  _64
REMARK   28  A    between atoms: _64  and  _65
REMARK   29  A    between atoms: _64  and  _67
REMARK   30  A    between atoms: _67  and  _68
REMARK   31  A    between atoms: _71  and  _73
REMARK   32  A    between atoms: _73  and  _74
REMARK   33  A    between atoms: _73  and  _76
REMARK   34  A    between atoms: _76  and  _77
REMARK   35  A    between atoms: _82  and  _83
REMARK   36  A    between atoms: _86  and  _87
REMARK   37  A    between atoms: _92  and  _94
REMARK   38  A    between atoms: _94  and  _95
REMARK   39  A    between atoms: _94  and  _97
REMARK   40  A    between atoms: _97  and  _98
REMARK   41  A    between atoms: _108  and  _110
REMARK   42  A    between atoms: _110  and  _111
REMARK   43  A    between atoms: _110  and  _113
REMARK   44  A    between atoms: _113  and  _114
REMARK   45  A    between atoms: _114  and  _115
REMARK   46  A    between atoms: _115  and  _116
REMARK   47  A    between atoms: _116  and  _117
REMARK   48  A    between atoms: _121  and  _123
REMARK   49  A    between atoms: _123  and  _124
REMARK   50  A    between atoms: _123  and  _126
REMARK   51  A    between atoms: _126  and  _127
REMARK   52  A    between atoms: _132  and  _133
REMARK   53  A    between atoms: _135  and  _137
REMARK   54  A    between atoms: _137  and  _138
REMARK   55  A    between atoms: _137  and  _140
REMARK   56  A    between atoms: _140  and  _141
REMARK   57  A    between atoms: _146  and  _148
REMARK   58  A    between atoms: _148  and  _149
REMARK   59  A    between atoms: _148  and  _151
REMARK   60  A    between atoms: _151  and  _152
REMARK   61  A    between atoms: _162  and  _164
REMARK   62  A    between atoms: _164  and  _165
REMARK   63  A    between atoms: _164  and  _167
REMARK   64  A    between atoms: _167  and  _168
REMARK   65  A    between atoms: _168  and  _169
REMARK   66  A    between atoms: _169  and  _170
REMARK   67  A    between atoms: _179  and  _181
REMARK   68  A    between atoms: _181  and  _182
REMARK   69  A    between atoms: _181  and  _184
REMARK   70  A    between atoms: _184  and  _185
REMARK   71  A    between atoms: _185  and  _186
REMARK   72  A    between atoms: _189  and  _191
REMARK   73  A    between atoms: _191  and  _192
REMARK   74  A    between atoms: _191  and  _194
REMARK   75  A    between atoms: _194  and  _195
REMARK   76  A    between atoms: _200  and  _202
REMARK   77  A    between atoms: _202  and  _203
REMARK   78  A    between atoms: _202  and  _205
REMARK   79  A    between atoms: _205  and  _206
REMARK   80  A    between atoms: _209  and  _211
REMARK   81  A    between atoms: _211  and  _212
REMARK   82  A    between atoms: _211  and  _214
REMARK   83  A    between atoms: _214  and  _215
REMARK   84  A    between atoms: _218  and  _220
REMARK   85  A    between atoms: _220  and  _221
REMARK   86  A    between atoms: _220  and  _223
REMARK   87  A    between atoms: _223  and  _224
REMARK   88  A    between atoms: _227  and  _229
REMARK   89  A    between atoms: _229  and  _230
REMARK   90  A    between atoms: _229  and  _232
REMARK   91  A    between atoms: _235  and  _237
REMARK   92  A    between atoms: _237  and  _238
REMARK   93  A    between atoms: _240  and  _242
REMARK   94  A    between atoms: _242  and  _243
REMARK   95  A    between atoms: _242  and  _245
REMARK   96  A    between atoms: _245  and  _246
REMARK   97  A    between atoms: _251  and  _253
REMARK   98  A    between atoms: _253  and  _254
REMARK   99  A    between atoms: _253  and  _256
REMARK  100  A    between atoms: _256  and  _257
REMARK  101  A    between atoms: _260  and  _262
REMARK  102  A    between atoms: _262  and  _263
REMARK  103  A    between atoms: _262  and  _265
REMARK  104  A    between atoms: _265  and  _266
REMARK  105  A    between atoms: _269  and  _271
REMARK  106  A    between atoms: _271  and  _272
REMARK  107  A    between atoms: _271  and  _274
REMARK  108  A    between atoms: _274  and  _275
REMARK  109  A    between atoms: _275  and  _276
REMARK  110  A    between atoms: _276  and  _277
REMARK  111  A    between atoms: _286  and  _288
REMARK  112  A    between atoms: _288  and  _289
REMARK  113  A    between atoms: _288  and  _291
REMARK  114  A    between atoms: _291  and  _292
REMARK  115  A    between atoms: _295  and  _297
REMARK  116  A    between atoms: _297  and  _298
REMARK  117  A    between atoms: _297  and  _300
REMARK  118  A    between atoms: _300  and  _301
REMARK  119  A    between atoms: _301  and  _302
REMARK  120  A    between atoms: _302  and  _303
REMARK  121  A    between atoms: _312  and  _314
REMARK  122  A    between atoms: _314  and  _315
REMARK  123  A    between atoms: _314  and  _317
REMARK  124  A    between atoms: _317  and  _318
REMARK  125  A    between atoms: _318  and  _319
REMARK  126  A    between atoms: _321  and  _323
REMARK  127  A    between atoms: _323  and  _324
REMARK  128  A    between atoms: _323  and  _326
REMARK  129  A    between atoms: _326  and  _327
REMARK  130  A    between atoms: _333  and  _335
REMARK  131  A    between atoms: _335  and  _336
REMARK  132  A    between atoms: _335  and  _338
REMARK  133  A    between atoms: _340  and  _342
REMARK  134  A    between atoms: _342  and  _343
REMARK  135  A    between atoms: _346  and  _348
REMARK  136  A    between atoms: _348  and  _349
REMARK  137  A    between atoms: _351  and  _353
REMARK  138  A    between atoms: _353  and  _354
REMARK  139  A    between atoms: _353  and  _356
REMARK  140  A    between atoms: _356  and  _357
REMARK  141  A    between atoms: _360  and  _362
REMARK  142  A    between atoms: _362  and  _363
REMARK  143  A    between atoms: _366  and  _368
REMARK  144  A    between atoms: _368  and  _369
REMARK  145  A    between atoms: _368  and  _371
REMARK  146  A    between atoms: _371  and  _372
REMARK  147  A    between atoms: _372  and  _494
REMARK  148  A    between atoms: _373  and  _375
REMARK  149  A    between atoms: _375  and  _376
REMARK  150  A    between atoms: _375  and  _378
REMARK  151  A    between atoms: _378  and  _379
REMARK  152  A    between atoms: _379  and  _380
REMARK  153  A    between atoms: _383  and  _385
REMARK  154  A    between atoms: _385  and  _386
REMARK  155  A    between atoms: _388  and  _390
REMARK  156  A    between atoms: _390  and  _391
REMARK  157  A    between atoms: _390  and  _393
REMARK  158  A    between atoms: _393  and  _394
REMARK  159  A    between atoms: _397  and  _399
REMARK  160  A    between atoms: _399  and  _400
REMARK  161  A    between atoms: _399  and  _402
REMARK  162  A    between atoms: _402  and  _403
REMARK  163  A    between atoms: _405  and  _407
REMARK  164  A    between atoms: _407  and  _408
REMARK  165  A    between atoms: _410  and  _412
REMARK  166  A    between atoms: _412  and  _413
REMARK  167  A    between atoms: _415  and  _417
REMARK  168  A    between atoms: _417  and  _418
REMARK  169  A    between atoms: _417  and  _420
REMARK  170  A    between atoms: _420  and  _421
REMARK  171  A    between atoms: _427  and  _429
REMARK  172  A    between atoms: _429  and  _430
REMARK  173  A    between atoms: _429  and  _432
REMARK  174  A    between atoms: _432  and  _433
REMARK  175  A    between atoms: _436  and  _438
REMARK  176  A    between atoms: _438  and  _439
REMARK  177  A    between atoms: _438  and  _441
REMARK  178  A    between atoms: _444  and  _446
REMARK  179  A    between atoms: _446  and  _447
REMARK  180  A    between atoms: _446  and  _449
REMARK  181  A    between atoms: _449  and  _450
REMARK  182  A    between atoms: _452  and  _454
REMARK  183  A    between atoms: _454  and  _455
REMARK  184  A    between atoms: _454  and  _457
REMARK  185  A    between atoms: _457  and  _458
REMARK  186  A    between atoms: _468  and  _470
REMARK  187  A    between atoms: _470  and  _471
REMARK  188  A    between atoms: _473  and  _475
REMARK  189  A    between atoms: _475  and  _476
REMARK  190  A    between atoms: _475  and  _478
REMARK  191  A    between atoms: _478  and  _479
REMARK  192  A    between atoms: _479  and  _480
REMARK  193  A    between atoms: _483  and  _485
REMARK  194  A    between atoms: _485  and  _486
REMARK  195  A    between atoms: _488  and  _490
REMARK  196  A    between atoms: _490  and  _491
REMARK  197  A    between atoms: _490  and  _493
REMARK  198  A    between atoms: _493  and  _494
REMARK  199  A    between atoms: _495  and  _497
REMARK  200  A    between atoms: _497  and  _498
REMARK  201  A    between atoms: _497  and  _500
REMARK  202  A    between atoms: _500  and  _501
REMARK  203  A    between atoms: _504  and  _506
REMARK  204  A    between atoms: _506  and  _507
REMARK  205  A    between atoms: _506  and  _509
REMARK  206  A    between atoms: _509  and  _510
REMARK  207  A    between atoms: _510  and  _511
REMARK  208  A    between atoms: _511  and  _512
REMARK  209  A    between atoms: _521  and  _523
REMARK  210  A    between atoms: _523  and  _524
REMARK  211  A    between atoms: _523  and  _526
REMARK  212  A    between atoms: _526  and  _527
REMARK  213  A    between atoms: _527  and  _528
REMARK  214  A    between atoms: _528  and  _529
REMARK  215  A    between atoms: _529  and  _530
REMARK  216  A    between atoms: _534  and  _536
REMARK  217  A    between atoms: _536  and  _537
REMARK  218  A    between atoms: _536  and  _539
REMARK  219  A    between atoms: _539  and  _540
REMARK  220  A    between atoms: _545  and  _546
REMARK  221  A    between atoms: _548  and  _550
REMARK  222  A    between atoms: _550  and  _551
REMARK  223  A    between atoms: _553  and  _555
REMARK  224  A    between atoms: _555  and  _556
REMARK  225  A    between atoms: _555  and  _558
REMARK  226  A    between atoms: _558  and  _559
REMARK  227  A    between atoms: _565  and  _567
REMARK  228  A    between atoms: _567  and  _568
REMARK  229  A    between atoms: _567  and  _570
REMARK  230  A    between atoms: _570  and  _571
REMARK  231  A    between atoms: _576  and  _577
REMARK  232  A    between atoms: _579  and  _581
REMARK  233  A    between atoms: _581  and  _582
REMARK  234  A    between atoms: _581  and  _584
REMARK  235  A    between atoms: _584  and  _585
REMARK                            x       y       z     vdW  Elec       q    Type
REMARK                         _______ _______ _______ _____ _____    ______ ____
ROOT
ATOM      1  CA  ASN A   2       5.893 -12.938  14.823  0.00  0.00    +0.146 C 
ENDROOT
BRANCH   1   3
ATOM      2  C   GLY A   1       6.516 -10.607  14.526  0.00  0.00    +0.240 C 
ATOM      3  N   ASN A   2       6.876 -11.869  14.739  0.00  0.00    -0.298 N 
ATOM      4  H   ASN A   2       7.885 -12.097  14.848  0.00  0.00    +0.150 HD
ATOM      5  O   GLY A   1       5.342 -10.256  14.412  0.00  0.00    -0.274 OA
BRANCH   2   6
ATOM      6  CA  GLY A   1       7.643  -9.601  14.440  0.00  0.00    +0.169 C 
BRANCH   6   7
ATOM      7  N   GLY A   1       7.214  -8.243  14.155  0.00  0.00    -0.236 NA
ATOM      8  H   GLY A   1       7.325  -7.513  14.887  0.00  0.00    +0.142 HD
ENDBRANCH   6   7
ENDBRANCH   2   6
ENDBRANCH   1   3
BRANCH   1   9
ATOM      9  C   ASN A   2       4.820 -12.740  15.887  0.00  0.00    +0.227 C 
ATOM     10  O   ASN A   2       5.057 -12.145  16.940  0.00  0.00    -0.286 OA
ENDBRANCH   1   9
BRANCH   1  11
ATOM     11  CB  ASN A   2       6.601 -14.279  15.034  0.00  0.00    +0.112 C 
BRANCH  11  12
ATOM     12  CG  ASN A   2       7.536 -14.617  13.902  0.00  0.00    +0.222 C 
ATOM     13  ND2 ASN A   2       8.466 -15.527  14.150  0.00  0.00    -0.329 N 
ATOM     14 HD21 ASN A   2       8.528 -15.964  15.092  0.00  0.00    +0.145 HD
ATOM     15 HD22 ASN A   2       9.134 -15.805  13.403  0.00  0.00    +0.145 HD
ATOM     16  OD1 ASN A   2       7.419 -14.069  12.803  0.00  0.00    -0.275 OA
ENDBRANCH  11  12
ENDBRANCH   1  11
TORSDOF 6
REMARK  Name = ../refined-set-2016/1z71/1z71_pocket.pdb
REMARK  235 active torsions:
REMARK  status: ('A' for Active; 'I' for Inactive)
REMARK    1  A    between atoms: _1  and  _5
REMARK    2  A    between atoms: _5  and  _6
REMARK    3  A    between atoms: _5  and  _8
REMARK    4  A    between atoms: _8  and  _9
REMARK    5  A    between atoms: _12  and  _14
REMARK    6  A    between atoms: _14  and  _15
REMARK    7  A    between atoms: _14  and  _17
REMARK    8  A    between atoms: _20  and  _22
REMARK    9  A    between atoms: _22  and  _23
REMARK   10  A    between atoms: _22  and  _25
REMARK   11  A    between atoms: _25  and  _26
REMARK   12  A    between atoms: _26  and  _61
REMARK   13  A    between atoms: _27  and  _29
REMARK   14  A    between atoms: _29  and  _30
REMARK   15  A    between atoms: _32  and  _34
REMARK   16  A    between atoms: _34  and  _35
REMARK   17  A    between atoms: _38  and  _40
REMARK   18  A    between atoms: _40  and  _41
REMARK   19  A    between atoms: _44  and  _46
REMARK   20  A    between atoms: _46  and  _47
REMARK   21  A    between atoms: _46  and  _49
REMARK   22  A    between atoms: _49  and  _50
REMARK   23  A    between atoms: _55  and  _57
REMARK   24  A    between atoms: _57  and  _58
REMARK   25  A    between atoms: _57  and  _60
REMARK   26  A    between atoms: _60  and  _61
REMARK   27  A    between atoms: _62  and  _64
REMARK   28  A    between atoms: _64  and  _65
REMARK   29  A    between atoms: _64  and  _67
REMARK   30  A    between atoms: _67  and  _68
REMARK   31  A    between atoms: _71  and  _73
REMARK   32  A    between atoms: _73  and  _74
REMARK   33  A    between atoms: _73  and  _76
REMARK   34  A    between atoms: _76  and  _77
REMARK   35  A    between atoms: _82  and  _83
REMARK   36  A    between atoms: _86  and  _87
REMARK   37  A    between atoms: _92  and  _94
REMARK   38  A    between atoms: _94  and  _95
REMARK   39  A    between atoms: _94  and  _97
REMARK   40  A    between atoms: _97  and  _98
REMARK   41  A    between atoms: _108  and  _110
REMARK   42  A    between atoms: _110  and  _111
REMARK   43  A    between atoms: _110  and  _113
REMARK   44  A    between atoms: _113  and  _114
REMARK   45  A    between atoms: _114  and  _115
REMARK   46  A    between atoms: _115  and  _116
REMARK   47  A    between atoms: _116  and  _117
REMARK   48  A    between atoms: _121  and  _123
REMARK   49  A    between atoms: _123  and  _124
REMARK   50  A    between atoms: _123  and  _126
REMARK   51  A    between atoms: _126  and  _127
REMARK   52  A    between atoms: _132  and  _133
REMARK   53  A    between atoms: _135  and  _137
REMARK   54  A    between atoms: _137  and  _138
REMARK   55  A    between atoms: _137  and  _140
REMARK   56  A    between atoms: _140  and  _141
REMARK   57  A    between atoms: _146  and  _148
REMARK   58  A    between atoms: _148  and  _149
REMARK   59  A    between atoms: _148  and  _151
REMARK   60  A    between atoms: _151  and  _152
REMARK   61  A    between atoms: _162  and  _164
REMARK   62  A    between atoms: _164  and  _165
REMARK   63  A    between atoms: _164  and  _167
REMARK   64  A    between atoms: _167  and  _168
REMARK   65  A    between atoms: _168  and  _169
REMARK   66  A    between atoms: _169  and  _170
REMARK   67  A    between atoms: _179  and  _181
REMARK   68  A    between atoms: _181  and  _182
REMARK   69  A    between atoms: _181  and  _184
REMARK   70  A    between atoms: _184  and  _185
REMARK   71  A    between atoms: _185  and  _186
REMARK   72  A    between atoms: _189  and  _191
REMARK   73  A    between atoms: _191  and  _192
REMARK   74  A    between atoms: _191  and  _194
REMARK   75  A    between atoms: _194  and  _195
REMARK   76  A    between atoms: _200  and  _202
REMARK   77  A    between atoms: _202  and  _203
REMARK   78  A    between atoms: _202  and  _205
REMARK   79  A    between atoms: _205  and  _206
REMARK   80  A    between atoms: _209  and  _211
REMARK   81  A    between atoms: _211  and  _212
REMARK   82  A    between atoms: _211  and  _214
REMARK   83  A    between atoms: _214  and  _215
REMARK   84  A    between atoms: _218  and  _220
REMARK   85  A    between atoms: _220  and  _221
REMARK   86  A    between atoms: _220  and  _223
REMARK   87  A    between atoms: _223  and  _224
REMARK   88  A    between atoms: _227  and  _229
REMARK   89  A    between atoms: _229  and  _230
REMARK   90  A    between atoms: _229  and  _232
REMARK   91  A    between atoms: _235  and  _237
REMARK   92  A    between atoms: _237  and  _238
REMARK   93  A    between atoms: _240  and  _242
REMARK   94  A    between atoms: _242  and  _243
REMARK   95  A    between atoms: _242  and  _245
REMARK   96  A    between atoms: _245  and  _246
REMARK   97  A    between atoms: _251  and  _253
REMARK   98  A    between atoms: _253  and  _254
REMARK   99  A    between atoms: _253  and  _256
REMARK  100  A    between atoms: _256  and  _257
REMARK  101  A    between atoms: _260  and  _262
REMARK  102  A    between atoms: _262  and  _263
REMARK  103  A    between atoms: _262  and  _265
REMARK  104  A    between atoms: _265  and  _266
REMARK  105  A    between atoms: _269  and  _271
REMARK  106  A    between atoms: _271  and  _272
REMARK  107  A    between atoms: _271  and  _274
REMARK  108  A    between atoms: _274  and  _275
REMARK  109  A    between atoms: _275  and  _276
REMARK  110  A    between atoms: _276  and  _277
REMARK  111  A    between atoms: _286  and  _288
REMARK  112  A    between atoms: _288  and  _289
REMARK  113  A    between atoms: _288  and  _291
REMARK  114  A    between atoms: _291  and  _292
REMARK  115  A    between atoms: _295  and  _297
REMARK  116  A    between atoms: _297  and  _298
REMARK  117  A    between atoms: _297  and  _300
REMARK  118  A    between atoms: _300  and  _301
REMARK  119  A    between atoms: _301  and  _302
REMARK  120  A    between atoms: _302  and  _303
REMARK  121  A    between atoms: _312  and  _314
REMARK  122  A    between atoms: _314  and  _315
REMARK  123  A    between atoms: _314  and  _317
REMARK  124  A    between atoms: _317  and  _318
REMARK  125  A    between atoms: _318  and  _319
REMARK  126  A    between atoms: _321  and  _323
REMARK  127  A    between atoms: _323  and  _324
REMARK  128  A    between atoms: _323  and  _326
REMARK  129  A    between atoms: _326  and  _327
REMARK  130  A    between atoms: _333  and  _335
REMARK  131  A    between atoms: _335  and  _336
REMARK  132  A    between atoms: _335  and  _338
REMARK  133  A    between atoms: _340  and  _342
REMARK  134  A    between atoms: _342  and  _343
REMARK  135  A    between atoms: _346  and  _348
REMARK  136  A    between atoms: _348  and  _349
REMARK  137  A    between atoms: _351  and  _353
REMARK  138  A    between atoms: _353  and  _354
REMARK  139  A    between atoms: _353  and  _356
REMARK  140  A    between atoms: _356  and  _357
REMARK  141  A    between atoms: _360  and  _362
REMARK  142  A    between atoms: _362  and  _363
REMARK  143  A    between atoms: _366  and  _368
REMARK  144  A    between atoms: _368  and  _369
REMARK  145  A    between atoms: _368  and  _371
REMARK  146  A    between atoms: _371  and  _372
REMARK  147  A    between atoms: _372  and  _494
REMARK  148  A    between atoms: _373  and  _375
REMARK  149  A    between atoms: _375  and  _376
REMARK  150  A    between atoms: _375  and  _378
REMARK  151  A    between atoms: _378  and  _379
REMARK  152  A    between atoms: _379  and  _380
REMARK  153  A    between atoms: _383  and  _385
REMARK  154  A    between atoms: _385  and  _386
REMARK  155  A    between atoms: _388  and  _390
REMARK  156  A    between atoms: _390  and  _391
REMARK  157  A    between atoms: _390  and  _393
REMARK  158  A    between atoms: _393  and  _394
REMARK  159  A    between atoms: _397  and  _399
REMARK  160  A    between atoms: _399  and  _400
REMARK  161  A    between atoms: _399  and  _402
REMARK  162  A    between atoms: _402  and  _403
REMARK  163  A    between atoms: _405  and  _407
REMARK  164  A    between atoms: _407  and  _408
REMARK  165  A    between atoms: _410  and  _412
REMARK  166  A    between atoms: _412  and  _413
REMARK  167  A    between atoms: _415  and  _417
REMARK  168  A    between atoms: _417  and  _418
REMARK  169  A    between atoms: _417  and  _420
REMARK  170  A    between atoms: _420  and  _421
REMARK  171  A    between atoms: _427  and  _429
REMARK  172  A    between atoms: _429  and  _430
REMARK  173  A    between atoms: _429  and  _432
REMARK  174  A    between atoms: _432  and  _433
REMARK  175  A    between atoms: _436  and  _438
REMARK  176  A    between atoms: _438  and  _439
REMARK  177  A    between atoms: _438  and  _441
REMARK  178  A    between atoms: _444  and  _446
REMARK  179  A    between atoms: _446  and  _447
REMARK  180  A    between atoms: _446  and  _449
REMARK  181  A    between atoms: _449  and  _450
REMARK  182  A    between atoms: _452  and  _454
REMARK  183  A    between atoms: _454  and  _455
REMARK  184  A    between atoms: _454  and  _457
REMARK  185  A    between atoms: _457  and  _458
REMARK  186  A    between atoms: _468  and  _470
REMARK  187  A    between atoms: _470  and  _471
REMARK  188  A    between atoms: _473  and  _475
REMARK  189  A    between atoms: _475  and  _476
REMARK  190  A    between atoms: _475  and  _478
REMARK  191  A    between atoms: _478  and  _479
REMARK  192  A    between atoms: _479  and  _480
REMARK  193  A    between atoms: _483  and  _485
REMARK  194  A    between atoms: _485  and  _486
REMARK  195  A    between atoms: _488  and  _490
REMARK  196  A    between atoms: _490  and  _491
REMARK  197  A    between atoms: _490  and  _493
REMARK  198  A    between atoms: _493  and  _494
REMARK  199  A    between atoms: _495  and  _497
REMARK  200  A    between atoms: _497  and  _498
REMARK  201  A    between atoms: _497  and  _500
REMARK  202  A    between atoms: _500  and  _501
REMARK  203  A    between atoms: _504  and  _506
REMARK  204  A    between atoms: _506  and  _507
REMARK  205  A    between atoms: _506  and  _509
REMARK  206  A    between atoms: _509  and  _510
REMARK  207  A    between atoms: _510  and  _511
REMARK  208  A    between atoms: _511  and  _512
REMARK  209  A    between atoms: _521  and  _523
REMARK  210  A    between atoms: _523  and  _524
REMARK  211  A    between atoms: _523  and  _526
REMARK  212  A    between atoms: _526  and  _527
REMARK  213  A    between atoms: _527  and  _528
REMARK  214  A    between atoms: _528  and  _529
REMARK  215  A    between atoms: _529  and  _530
REMARK  216  A    between atoms: _534  and  _536
REMARK  217  A    between atoms: _536  and  _537
REMARK  218  A    between atoms: _536  and  _539
REMARK  219  A    between atoms: _539  and  _540
REMARK  220  A    between atoms: _545  and  _546
REMARK  221  A    between atoms: _548  and  _550
REMARK  222  A    between atoms: _550  and  _551
REMARK  223  A    between atoms: _553  and  _555
REMARK  224  A    between atoms: _555  and  _556
REMARK  225  A    between atoms: _555  and  _558
REMARK  226  A    between atoms: _558  and  _559
REMARK  227  A    between atoms: _565  and  _567
REMARK  228  A    between atoms: _567  and  _568
REMARK  229  A    between atoms: _567  and  _570
REMARK  230  A    between atoms: _570  and  _571
REMARK  231  A    between atoms: _576  and  _577
REMARK  232  A    between atoms: _579  and  _581
REMARK  233  A    between atoms: _581  and  _582
REMARK  234  A    between atoms: _581  and  _584
REMARK  235  A    between atoms: _584  and  _585
REMARK                            x       y       z     vdW  Elec       q    Type
REMARK                         _______ _______ _______ _____ _____    ______ ____
ROOT
ATOM      1  CA  LEU A   1       3.747  -4.020  29.220  0.00  0.00    +0.133 C 
ENDROOT
BRANCH   1   2
ATOM      2  N   LEU A   1       3.272  -3.059  28.228  0.00  0.00    -0.239 NA
ATOM      3  H   LEU A   1       3.860  -2.230  28.007  0.00  0.00    +0.142 HD
ENDBRANCH   1   2
BRANCH   1   4
ATOM      4  C   LEU A   1       4.388  -3.324  30.413  0.00  0.00    +0.224 C 
ATOM      5  O   LEU A   1       5.097  -2.333  30.259  0.00  0.00    -0.287 OA
ENDBRANCH   1   4
BRANCH   1   6
ATOM      6  CB  LEU A   1       4.783  -4.946  28.574  0.00  0.00    +0.025 C 
BRANCH   6   7
ATOM      7  CG  LEU A   1       4.314  -5.709  27.335  0.00  0.00    +0.002 C 
ATOM      8  CD2 LEU A   1       3.340  -6.811  27.754  0.00  0.00    +0.000 C 
ATOM      9  CD1 LEU A   1       5.536  -6.294  26.594  0.00  0.00    +0.000 C 
ENDBRANCH   6   7
ENDBRANCH   1   6
TORSDOF 4
REMARK  Name = ../refined-set-2016/1z71/1z71_pocket.pdb
REMARK  235 active torsions:
REMARK  status: ('A' for Active; 'I' for Inactive)
REMARK    1  A    between atoms: _1  and  _5
REMARK    2  A    between atoms: _5  and  _6
REMARK    3  A    between atoms: _5  and  _8
REMARK    4  A    between atoms: _8  and  _9
REMARK    5  A    between atoms: _12  and  _14
REMARK    6  A    between atoms: _14  and  _15
REMARK    7  A    between atoms: _14  and  _17
REMARK    8  A    between atoms: _20  and  _22
REMARK    9  A    between atoms: _22  and  _23
REMARK   10  A    between atoms: _22  and  _25
REMARK   11  A    between atoms: _25  and  _26
REMARK   12  A    between atoms: _26  and  _61
REMARK   13  A    between atoms: _27  and  _29
REMARK   14  A    between atoms: _29  and  _30
REMARK   15  A    between atoms: _32  and  _34
REMARK   16  A    between atoms: _34  and  _35
REMARK   17  A    between atoms: _38  and  _40
REMARK   18  A    between atoms: _40  and  _41
REMARK   19  A    between atoms: _44  and  _46
REMARK   20  A    between atoms: _46  and  _47
REMARK   21  A    between atoms: _46  and  _49
REMARK   22  A    between atoms: _49  and  _50
REMARK   23  A    between atoms: _55  and  _57
REMARK   24  A    between atoms: _57  and  _58
REMARK   25  A    between atoms: _57  and  _60
REMARK   26  A    between atoms: _60  and  _61
REMARK   27  A    between atoms: _62  and  _64
REMARK   28  A    between atoms: _64  and  _65
REMARK   29  A    between atoms: _64  and  _67
REMARK   30  A    between atoms: _67  and  _68
REMARK   31  A    between atoms: _71  and  _73
REMARK   32  A    between atoms: _73  and  _74
REMARK   33  A    between atoms: _73  and  _76
REMARK   34  A    between atoms: _76  and  _77
REMARK   35  A    between atoms: _82  and  _83
REMARK   36  A    between atoms: _86  and  _87
REMARK   37  A    between atoms: _92  and  _94
REMARK   38  A    between atoms: _94  and  _95
REMARK   39  A    between atoms: _94  and  _97
REMARK   40  A    between atoms: _97  and  _98
REMARK   41  A    between atoms: _108  and  _110
REMARK   42  A    between atoms: _110  and  _111
REMARK   43  A    between atoms: _110  and  _113
REMARK   44  A    between atoms: _113  and  _114
REMARK   45  A    between atoms: _114  and  _115
REMARK   46  A    between atoms: _115  and  _116
REMARK   47  A    between atoms: _116  and  _117
REMARK   48  A    between atoms: _121  and  _123
REMARK   49  A    between atoms: _123  and  _124
REMARK   50  A    between atoms: _123  and  _126
REMARK   51  A    between atoms: _126  and  _127
REMARK   52  A    between atoms: _132  and  _133
REMARK   53  A    between atoms: _135  and  _137
REMARK   54  A    between atoms: _137  and  _138
REMARK   55  A    between atoms: _137  and  _140
REMARK   56  A    between atoms: _140  and  _141
REMARK   57  A    between atoms: _146  and  _148
REMARK   58  A    between atoms: _148  and  _149
REMARK   59  A    between atoms: _148  and  _151
REMARK   60  A    between atoms: _151  and  _152
REMARK   61  A    between atoms: _162  and  _164
REMARK   62  A    between atoms: _164  and  _165
REMARK   63  A    between atoms: _164  and  _167
REMARK   64  A    between atoms: _167  and  _168
REMARK   65  A    between atoms: _168  and  _169
REMARK   66  A    between atoms: _169  and  _170
REMARK   67  A    between atoms: _179  and  _181
REMARK   68  A    between atoms: _181  and  _182
REMARK   69  A    between atoms: _181  and  _184
REMARK   70  A    between atoms: _184  and  _185
REMARK   71  A    between atoms: _185  and  _186
REMARK   72  A    between atoms: _189  and  _191
REMARK   73  A    between atoms: _191  and  _192
REMARK   74  A    between atoms: _191  and  _194
REMARK   75  A    between atoms: _194  and  _195
REMARK   76  A    between atoms: _200  and  _202
REMARK   77  A    between atoms: _202  and  _203
REMARK   78  A    between atoms: _202  and  _205
REMARK   79  A    between atoms: _205  and  _206
REMARK   80  A    between atoms: _209  and  _211
REMARK   81  A    between atoms: _211  and  _212
REMARK   82  A    between atoms: _211  and  _214
REMARK   83  A    between atoms: _214  and  _215
REMARK   84  A    between atoms: _218  and  _220
REMARK   85  A    between atoms: _220  and  _221
REMARK   86  A    between atoms: _220  and  _223
REMARK   87  A    between atoms: _223  and  _224
REMARK   88  A    between atoms: _227  and  _229
REMARK   89  A    between atoms: _229  and  _230
REMARK   90  A    between atoms: _229  and  _232
REMARK   91  A    between atoms: _235  and  _237
REMARK   92  A    between atoms: _237  and  _238
REMARK   93  A    between atoms: _240  and  _242
REMARK   94  A    between atoms: _242  and  _243
REMARK   95  A    between atoms: _242  and  _245
REMARK   96  A    between atoms: _245  and  _246
REMARK   97  A    between atoms: _251  and  _253
REMARK   98  A    between atoms: _253  and  _254
REMARK   99  A    between atoms: _253  and  _256
REMARK  100  A    between atoms: _256  and  _257
REMARK  101  A    between atoms: _260  and  _262
REMARK  102  A    between atoms: _262  and  _263
REMARK  103  A    between atoms: _262  and  _265
REMARK  104  A    between atoms: _265  and  _266
REMARK  105  A    between atoms: _269  and  _271
REMARK  106  A    between atoms: _271  and  _272
REMARK  107  A    between atoms: _271  and  _274
REMARK  108  A    between atoms: _274  and  _275
REMARK  109  A    between atoms: _275  and  _276
REMARK  110  A    between atoms: _276  and  _277
REMARK  111  A    between atoms: _286  and  _288
REMARK  112  A    between atoms: _288  and  _289
REMARK  113  A    between atoms: _288  and  _291
REMARK  114  A    between atoms: _291  and  _292
REMARK  115  A    between atoms: _295  and  _297
REMARK  116  A    between atoms: _297  and  _298
REMARK  117  A    between atoms: _297  and  _300
REMARK  118  A    between atoms: _300  and  _301
REMARK  119  A    between atoms: _301  and  _302
REMARK  120  A    between atoms: _302  and  _303
REMARK  121  A    between atoms: _312  and  _314
REMARK  122  A    between atoms: _314  and  _315
REMARK  123  A    between atoms: _314  and  _317
REMARK  124  A    between atoms: _317  and  _318
REMARK  125  A    between atoms: _318  and  _319
REMARK  126  A    between atoms: _321  and  _323
REMARK  127  A    between atoms: _323  and  _324
REMARK  128  A    between atoms: _323  and  _326
REMARK  129  A    between atoms: _326  and  _327
REMARK  130  A    between atoms: _333  and  _335
REMARK  131  A    between atoms: _335  and  _336
REMARK  132  A    between atoms: _335  and  _338
REMARK  133  A    between atoms: _340  and  _342
REMARK  134  A    between atoms: _342  and  _343
REMARK  135  A    between atoms: _346  and  _348
REMARK  136  A    between atoms: _348  and  _349
REMARK  137  A    between atoms: _351  and  _353
REMARK  138  A    between atoms: _353  and  _354
REMARK  139  A    between atoms: _353  and  _356
REMARK  140  A    between atoms: _356  and  _357
REMARK  141  A    between atoms: _360  and  _362
REMARK  142  A    between atoms: _362  and  _363
REMARK  143  A    between atoms: _366  and  _368
REMARK  144  A    between atoms: _368  and  _369
REMARK  145  A    between atoms: _368  and  _371
REMARK  146  A    between atoms: _371  and  _372
REMARK  147  A    between atoms: _372  and  _494
REMARK  148  A    between atoms: _373  and  _375
REMARK  149  A    between atoms: _375  and  _376
REMARK  150  A    between atoms: _375  and  _378
REMARK  151  A    between atoms: _378  and  _379
REMARK  152  A    between atoms: _379  and  _380
REMARK  153  A    between atoms: _383  and  _385
REMARK  154  A    between atoms: _385  and  _386
REMARK  155  A    between atoms: _388  and  _390
REMARK  156  A    between atoms: _390  and  _391
REMARK  157  A    between atoms: _390  and  _393
REMARK  158  A    between atoms: _393  and  _394
REMARK  159  A    between atoms: _397  and  _399
REMARK  160  A    between atoms: _399  and  _400
REMARK  161  A    between atoms: _399  and  _402
REMARK  162  A    between atoms: _402  and  _403
REMARK  163  A    between atoms: _405  and  _407
REMARK  164  A    between atoms: _407  and  _408
REMARK  165  A    between atoms: _410  and  _412
REMARK  166  A    between atoms: _412  and  _413
REMARK  167  A    between atoms: _415  and  _417
REMARK  168  A    between atoms: _417  and  _418
REMARK  169  A    between atoms: _417  and  _420
REMARK  170  A    between atoms: _420  and  _421
REMARK  171  A    between atoms: _427  and  _429
REMARK  172  A    between atoms: _429  and  _430
REMARK  173  A    between atoms: _429  and  _432
REMARK  174  A    between atoms: _432  and  _433
REMARK  175  A    between atoms: _436  and  _438
REMARK  176  A    between atoms: _438  and  _439
REMARK  177  A    between atoms: _438  and  _441
REMARK  178  A    between atoms: _444  and  _446
REMARK  179  A    between atoms: _446  and  _447
REMARK  180  A    between atoms: _446  and  _449
REMARK  181  A    between atoms: _449  and  _450
REMARK  182  A    between atoms: _452  and  _454
REMARK  183  A    between atoms: _454  and  _455
REMARK  184  A    between atoms: _454  and  _457
REMARK  185  A    between atoms: _457  and  _458
REMARK  186  A    between atoms: _468  and  _470
REMARK  187  A    between atoms: _470  and  _471
REMARK  188  A    between atoms: _473  and  _475
REMARK  189  A    between atoms: _475  and  _476
REMARK  190  A    between atoms: _475  and  _478
REMARK  191  A    between atoms: _478  and  _479
REMARK  192  A    between atoms: _479  and  _480
REMARK  193  A    between atoms: _483  and  _485
REMARK  194  A    between atoms: _485  and  _486
REMARK  195  A    between atoms: _488  and  _490
REMARK  196  A    between atoms: _490  and  _491
REMARK  197  A    between atoms: _490  and  _493
REMARK  198  A    between atoms: _493  and  _494
REMARK  199  A    between atoms: _495  and  _497
REMARK  200  A    between atoms: _497  and  _498
REMARK  201  A    between atoms: _497  and  _500
REMARK  202  A    between atoms: _500  and  _501
REMARK  203  A    between atoms: _504  and  _506
REMARK  204  A    between atoms: _506  and  _507
REMARK  205  A    between atoms: _506  and  _509
REMARK  206  A    between atoms: _509  and  _510
REMARK  207  A    between atoms: _510  and  _511
REMARK  208  A    between atoms: _511  and  _512
REMARK  209  A    between atoms: _521  and  _523
REMARK  210  A    between atoms: _523  and  _524
REMARK  211  A    between atoms: _523  and  _526
REMARK  212  A    between atoms: _526  and  _527
REMARK  213  A    between atoms: _527  and  _528
REMARK  214  A    between atoms: _528  and  _529
REMARK  215  A    between atoms: _529  and  _530
REMARK  216  A    between atoms: _534  and  _536
REMARK  217  A    between atoms: _536  and  _537
REMARK  218  A    between atoms: _536  and  _539
REMARK  219  A    between atoms: _539  and  _540
REMARK  220  A    between atoms: _545  and  _546
REMARK  221  A    between atoms: _548  and  _550
REMARK  222  A    between atoms: _550  and  _551
REMARK  223  A    between atoms: _553  and  _555
REMARK  224  A    between atoms: _555  and  _556
REMARK  225  A    between atoms: _555  and  _558
REMARK  226  A    between atoms: _558  and  _559
REMARK  227  A    between atoms: _565  and  _567
REMARK  228  A    between atoms: _567  and  _568
REMARK  229  A    between atoms: _567  and  _570
REMARK  230  A    between atoms: _570  and  _571
REMARK  231  A    between atoms: _576  and  _577
REMARK  232  A    between atoms: _579  and  _581
REMARK  233  A    between atoms: _581  and  _582
REMARK  234  A    between atoms: _581  and  _584
REMARK  235  A    between atoms: _584  and  _585
REMARK                            x       y       z     vdW  Elec       q    Type
REMARK                         _______ _______ _______ _____ _____    ______ ____
ROOT
ATOM      1  C   ARG A   2      20.556 -17.691  33.577  0.00  0.00    +0.241 C 
ATOM      2  O   ARG A   2      21.695 -17.634  34.044  0.00  0.00    -0.273 OA
ATOM      3  N   ILE A   3      20.145 -16.905  32.583  0.00  0.00    -0.297 N 
ATOM      4  H   ILE A   3      19.171 -17.007  32.233  0.00  0.00    +0.150 HD
ENDROOT
BRANCH   3   5
ATOM      5  CA  ILE A   3      21.015 -15.903  31.965  0.00  0.00    +0.149 C 
BRANCH   5   6
ATOM      6  C   ILE A   3      21.392 -14.818  32.974  0.00  0.00    +0.241 C 
ATOM      7  O   ILE A   3      20.552 -14.358  33.751  0.00  0.00    -0.273 OA
ATOM      8  N   ARG A   4      22.660 -14.418  32.959  0.00  0.00    -0.298 N 
ATOM      9  H   ARG A   4      23.320 -14.856  32.285  0.00  0.00    +0.150 HD
BRANCH   8  10
ATOM     10  CA  ARG A   4      23.154 -13.381  33.862  0.00  0.00    +0.137 C 
BRANCH  10  11
ATOM     11  C   ARG A   4      22.654 -12.004  33.418  0.00  0.00    +0.227 C 
ATOM     12  O   ARG A   4      22.989 -11.530  32.335  0.00  0.00    -0.286 OA
ENDBRANCH  10  11
BRANCH  10  13
ATOM     13  CB  ARG A   4      24.685 -13.384  33.877  0.00  0.00    +0.031 C 
BRANCH  13  14
ATOM     14  CG  ARG A   4      25.315 -12.551  34.991  0.00  0.00    +0.045 C 
BRANCH  14  15
ATOM     15  CD  ARG A   4      26.803 -12.327  34.724  0.00  0.00    +0.174 C 
BRANCH  15  16
ATOM     16  NE  ARG A   4      27.013 -11.247  33.764  0.00  0.00    -0.265 N 
ATOM     17  HE  ARG A   4      26.231 -10.579  33.611  0.00  0.00    +0.259 HD
ATOM     18  CZ  ARG A   4      28.129 -11.057  33.073  0.00  0.00    +0.342 C 
ATOM     19  NH2 ARG A   4      29.157 -11.881  33.223  0.00  0.00    -0.292 N 
ATOM     20 HH21 ARG A   4      29.090 -12.681  33.885  0.00  0.00    +0.255 HD
ATOM     21 HH22 ARG A   4      30.030 -11.728  32.679  0.00  0.00    +0.255 HD
ATOM     22  NH1 ARG A   4      28.218 -10.040  32.227  0.00  0.00    -0.292 N 
ATOM     23 HH11 ARG A   4      27.413  -9.392  32.106  0.00  0.00    +0.255 HD
ATOM     24 HH12 ARG A   4      29.093  -9.890  31.685  0.00  0.00    +0.255 HD
ENDBRANCH  15  16
ENDBRANCH  14  15
ENDBRANCH  13  14
ENDBRANCH  10  13
ENDBRANCH   8  10
ENDBRANCH   5   6
BRANCH   5  25
ATOM     25  CB  ILE A   3      20.316 -15.232  30.737  0.00  0.00    +0.027 C 
ATOM     26  CG2 ILE A   3      21.272 -14.234  30.045  0.00  0.00    +0.002 C 
BRANCH  25  27
ATOM     27  CG1 ILE A   3      19.893 -16.296  29.720  0.00  0.00    +0.002 C 
ATOM     28  CD1 ILE A   3      21.055 -16.951  28.997  0.00  0.00    +0.000 C 
ENDBRANCH  25  27
ENDBRANCH   5  25
ENDBRANCH   3   5
BRANCH   1  29
ATOM     29  CA  ARG A   2      19.536 -18.704  34.115  0.00  0.00    +0.149 C 
BRANCH  29  32
ATOM     30  C   THR A   1      17.455 -17.486  34.519  0.00  0.00    +0.241 C 
ATOM     31  O   THR A   1      17.813 -17.126  35.636  0.00  0.00    -0.274 OA
ATOM     32  N   ARG A   2      18.194 -18.264  33.737  0.00  0.00    -0.297 N 
ATOM     33  H   ARG A   2      17.804 -18.571  32.823  0.00  0.00    +0.150 HD
BRANCH  30  34
ATOM     34  CA  THR A   1      16.103 -17.064  33.957  0.00  0.00    +0.172 C 
BRANCH  34  35
ATOM     35  CB  THR A   1      16.343 -16.014  32.841  0.00  0.00    +0.135 C 
ATOM     36  CG2 THR A   1      16.967 -14.763  33.439  0.00  0.00    +0.034 C 
BRANCH  35  37
ATOM     37  OG1 THR A   1      17.204 -16.541  31.825  0.00  0.00    -0.383 OA
ATOM     38  HG1 THR A   1      16.787 -17.344  31.424  0.00  0.00    +0.210 HD
ENDBRANCH  35  37
ENDBRANCH  34  35
BRANCH  34  39
ATOM     39  N   THR A   1      15.202 -16.495  34.957  0.00  0.00    -0.236 NA
ATOM     40  H   THR A   1      15.589 -15.949  35.753  0.00  0.00    +0.142 HD
ENDBRANCH  34  39
ENDBRANCH  30  34
ENDBRANCH  29  32
BRANCH  29  41
ATOM     41  CB  ARG A   2      19.852 -20.065  33.495  0.00  0.00    +0.033 C 
BRANCH  41  42
ATOM     42  CG  ARG A   2      19.323 -21.291  34.217  0.00  0.00    +0.045 C 
BRANCH  42  43
ATOM     43  CD  ARG A   2      19.540 -22.495  33.302  0.00  0.00    +0.174 C 
BRANCH  43  44
ATOM     44  NE  ARG A   2      19.559 -23.789  33.977  0.00  0.00    -0.265 N 
ATOM     45  CZ  ARG A   2      20.663 -24.425  34.361  0.00  0.00    +0.342 C 
ATOM     46  NH2 ARG A   2      20.573 -25.610  34.943  0.00  0.00    -0.292 N 
ATOM     47 HH21 ARG A   2      21.435 -26.108  35.244  0.00  0.00    +0.255 HD
ATOM     48 HH22 ARG A   2      19.640 -26.043  35.100  0.00  0.00    +0.255 HD
ATOM     49  NH1 ARG A   2      21.857 -23.893  34.148  0.00  0.00    -0.292 N 
ATOM     50 HH11 ARG A   2      22.713 -24.399  34.452  0.00  0.00    +0.255 HD
ATOM     51 HH12 ARG A   2      21.938 -22.970  33.677  0.00  0.00    +0.255 HD
ATOM     52  HE  ARG A   2      18.645 -24.246  34.172  0.00  0.00    +0.259 HD
ENDBRANCH  43  44
ENDBRANCH  42  43
ENDBRANCH  41  42
ENDBRANCH  29  41
ENDBRANCH   1  29
TORSDOF 20
REMARK  Name = ../refined-set-2016/1z71/1z71_pocket.pdb
REMARK  235 active torsions:
REMARK  status: ('A' for Active; 'I' for Inactive)
REMARK    1  A    between atoms: _1  and  _5
REMARK    2  A    between atoms: _5  and  _6
REMARK    3  A    between atoms: _5  and  _8
REMARK    4  A    between atoms: _8  and  _9
REMARK    5  A    between atoms: _12  and  _14
REMARK    6  A    between atoms: _14  and  _15
REMARK    7  A    between atoms: _14  and  _17
REMARK    8  A    between atoms: _20  and  _22
REMARK    9  A    between atoms: _22  and  _23
REMARK   10  A    between atoms: _22  and  _25
REMARK   11  A    between atoms: _25  and  _26
REMARK   12  A    between atoms: _26  and  _61
REMARK   13  A    between atoms: _27  and  _29
REMARK   14  A    between atoms: _29  and  _30
REMARK   15  A    between atoms: _32  and  _34
REMARK   16  A    between atoms: _34  and  _35
REMARK   17  A    between atoms: _38  and  _40
REMARK   18  A    between atoms: _40  and  _41
REMARK   19  A    between atoms: _44  and  _46
REMARK   20  A    between atoms: _46  and  _47
REMARK   21  A    between atoms: _46  and  _49
REMARK   22  A    between atoms: _49  and  _50
REMARK   23  A    between atoms: _55  and  _57
REMARK   24  A    between atoms: _57  and  _58
REMARK   25  A    between atoms: _57  and  _60
REMARK   26  A    between atoms: _60  and  _61
REMARK   27  A    between atoms: _62  and  _64
REMARK   28  A    between atoms: _64  and  _65
REMARK   29  A    between atoms: _64  and  _67
REMARK   30  A    between atoms: _67  and  _68
REMARK   31  A    between atoms: _71  and  _73
REMARK   32  A    between atoms: _73  and  _74
REMARK   33  A    between atoms: _73  and  _76
REMARK   34  A    between atoms: _76  and  _77
REMARK   35  A    between atoms: _82  and  _83
REMARK   36  A    between atoms: _86  and  _87
REMARK   37  A    between atoms: _92  and  _94
REMARK   38  A    between atoms: _94  and  _95
REMARK   39  A    between atoms: _94  and  _97
REMARK   40  A    between atoms: _97  and  _98
REMARK   41  A    between atoms: _108  and  _110
REMARK   42  A    between atoms: _110  and  _111
REMARK   43  A    between atoms: _110  and  _113
REMARK   44  A    between atoms: _113  and  _114
REMARK   45  A    between atoms: _114  and  _115
REMARK   46  A    between atoms: _115  and  _116
REMARK   47  A    between atoms: _116  and  _117
REMARK   48  A    between atoms: _121  and  _123
REMARK   49  A    between atoms: _123  and  _124
REMARK   50  A    between atoms: _123  and  _126
REMARK   51  A    between atoms: _126  and  _127
REMARK   52  A    between atoms: _132  and  _133
REMARK   53  A    between atoms: _135  and  _137
REMARK   54  A    between atoms: _137  and  _138
REMARK   55  A    between atoms: _137  and  _140
REMARK   56  A    between atoms: _140  and  _141
REMARK   57  A    between atoms: _146  and  _148
REMARK   58  A    between atoms: _148  and  _149
REMARK   59  A    between atoms: _148  and  _151
REMARK   60  A    between atoms: _151  and  _152
REMARK   61  A    between atoms: _162  and  _164
REMARK   62  A    between atoms: _164  and  _165
REMARK   63  A    between atoms: _164  and  _167
REMARK   64  A    between atoms: _167  and  _168
REMARK   65  A    between atoms: _168  and  _169
REMARK   66  A    between atoms: _169  and  _170
REMARK   67  A    between atoms: _179  and  _181
REMARK   68  A    between atoms: _181  and  _182
REMARK   69  A    between atoms: _181  and  _184
REMARK   70  A    between atoms: _184  and  _185
REMARK   71  A    between atoms: _185  and  _186
REMARK   72  A    between atoms: _189  and  _191
REMARK   73  A    between atoms: _191  and  _192
REMARK   74  A    between atoms: _191  and  _194
REMARK   75  A    between atoms: _194  and  _195
REMARK   76  A    between atoms: _200  and  _202
REMARK   77  A    between atoms: _202  and  _203
REMARK   78  A    between atoms: _202  and  _205
REMARK   79  A    between atoms: _205  and  _206
REMARK   80  A    between atoms: _209  and  _211
REMARK   81  A    between atoms: _211  and  _212
REMARK   82  A    between atoms: _211  and  _214
REMARK   83  A    between atoms: _214  and  _215
REMARK   84  A    between atoms: _218  and  _220
REMARK   85  A    between atoms: _220  and  _221
REMARK   86  A    between atoms: _220  and  _223
REMARK   87  A    between atoms: _223  and  _224
REMARK   88  A    between atoms: _227  and  _229
REMARK   89  A    between atoms: _229  and  _230
REMARK   90  A    between atoms: _229  and  _232
REMARK   91  A    between atoms: _235  and  _237
REMARK   92  A    between atoms: _237  and  _238
REMARK   93  A    between atoms: _240  and  _242
REMARK   94  A    between atoms: _242  and  _243
REMARK   95  A    between atoms: _242  and  _245
REMARK   96  A    between atoms: _245  and  _246
REMARK   97  A    between atoms: _251  and  _253
REMARK   98  A    between atoms: _253  and  _254
REMARK   99  A    between atoms: _253  and  _256
REMARK  100  A    between atoms: _256  and  _257
REMARK  101  A    between atoms: _260  and  _262
REMARK  102  A    between atoms: _262  and  _263
REMARK  103  A    between atoms: _262  and  _265
REMARK  104  A    between atoms: _265  and  _266
REMARK  105  A    between atoms: _269  and  _271
REMARK  106  A    between atoms: _271  and  _272
REMARK  107  A    between atoms: _271  and  _274
REMARK  108  A    between atoms: _274  and  _275
REMARK  109  A    between atoms: _275  and  _276
REMARK  110  A    between atoms: _276  and  _277
REMARK  111  A    between atoms: _286  and  _288
REMARK  112  A    between atoms: _288  and  _289
REMARK  113  A    between atoms: _288  and  _291
REMARK  114  A    between atoms: _291  and  _292
REMARK  115  A    between atoms: _295  and  _297
REMARK  116  A    between atoms: _297  and  _298
REMARK  117  A    between atoms: _297  and  _300
REMARK  118  A    between atoms: _300  and  _301
REMARK  119  A    between atoms: _301  and  _302
REMARK  120  A    between atoms: _302  and  _303
REMARK  121  A    between atoms: _312  and  _314
REMARK  122  A    between atoms: _314  and  _315
REMARK  123  A    between atoms: _314  and  _317
REMARK  124  A    between atoms: _317  and  _318
REMARK  125  A    between atoms: _318  and  _319
REMARK  126  A    between atoms: _321  and  _323
REMARK  127  A    between atoms: _323  and  _324
REMARK  128  A    between atoms: _323  and  _326
REMARK  129  A    between atoms: _326  and  _327
REMARK  130  A    between atoms: _333  and  _335
REMARK  131  A    between atoms: _335  and  _336
REMARK  132  A    between atoms: _335  and  _338
REMARK  133  A    between atoms: _340  and  _342
REMARK  134  A    between atoms: _342  and  _343
REMARK  135  A    between atoms: _346  and  _348
REMARK  136  A    between atoms: _348  and  _349
REMARK  137  A    between atoms: _351  and  _353
REMARK  138  A    between atoms: _353  and  _354
REMARK  139  A    between atoms: _353  and  _356
REMARK  140  A    between atoms: _356  and  _357
REMARK  141  A    between atoms: _360  and  _362
REMARK  142  A    between atoms: _362  and  _363
REMARK  143  A    between atoms: _366  and  _368
REMARK  144  A    between atoms: _368  and  _369
REMARK  145  A    between atoms: _368  and  _371
REMARK  146  A    between atoms: _371  and  _372
REMARK  147  A    between atoms: _372  and  _494
REMARK  148  A    between atoms: _373  and  _375
REMARK  149  A    between atoms: _375  and  _376
REMARK  150  A    between atoms: _375  and  _378
REMARK  151  A    between atoms: _378  and  _379
REMARK  152  A    between atoms: _379  and  _380
REMARK  153  A    between atoms: _383  and  _385
REMARK  154  A    between atoms: _385  and  _386
REMARK  155  A    between atoms: _388  and  _390
REMARK  156  A    between atoms: _390  and  _391
REMARK  157  A    between atoms: _390  and  _393
REMARK  158  A    between atoms: _393  and  _394
REMARK  159  A    between atoms: _397  and  _399
REMARK  160  A    between atoms: _399  and  _400
REMARK  161  A    between atoms: _399  and  _402
REMARK  162  A    between atoms: _402  and  _403
REMARK  163  A    between atoms: _405  and  _407
REMARK  164  A    between atoms: _407  and  _408
REMARK  165  A    between atoms: _410  and  _412
REMARK  166  A    between atoms: _412  and  _413
REMARK  167  A    between atoms: _415  and  _417
REMARK  168  A    between atoms: _417  and  _418
REMARK  169  A    between atoms: _417  and  _420
REMARK  170  A    between atoms: _420  and  _421
REMARK  171  A    between atoms: _427  and  _429
REMARK  172  A    between atoms: _429  and  _430
REMARK  173  A    between atoms: _429  and  _432
REMARK  174  A    between atoms: _432  and  _433
REMARK  175  A    between atoms: _436  and  _438
REMARK  176  A    between atoms: _438  and  _439
REMARK  177  A    between atoms: _438  and  _441
REMARK  178  A    between atoms: _444  and  _446
REMARK  179  A    between atoms: _446  and  _447
REMARK  180  A    between atoms: _446  and  _449
REMARK  181  A    between atoms: _449  and  _450
REMARK  182  A    between atoms: _452  and  _454
REMARK  183  A    between atoms: _454  and  _455
REMARK  184  A    between atoms: _454  and  _457
REMARK  185  A    between atoms: _457  and  _458
REMARK  186  A    between atoms: _468  and  _470
REMARK  187  A    between atoms: _470  and  _471
REMARK  188  A    between atoms: _473  and  _475
REMARK  189  A    between atoms: _475  and  _476
REMARK  190  A    between atoms: _475  and  _478
REMARK  191  A    between atoms: _478  and  _479
REMARK  192  A    between atoms: _479  and  _480
REMARK  193  A    between atoms: _483  and  _485
REMARK  194  A    between atoms: _485  and  _486
REMARK  195  A    between atoms: _488  and  _490
REMARK  196  A    between atoms: _490  and  _491
REMARK  197  A    between atoms: _490  and  _493
REMARK  198  A    between atoms: _493  and  _494
REMARK  199  A    between atoms: _495  and  _497
REMARK  200  A    between atoms: _497  and  _498
REMARK  201  A    between atoms: _497  and  _500
REMARK  202  A    between atoms: _500  and  _501
REMARK  203  A    between atoms: _504  and  _506
REMARK  204  A    between atoms: _506  and  _507
REMARK  205  A    between atoms: _506  and  _509
REMARK  206  A    between atoms: _509  and  _510
REMARK  207  A    between atoms: _510  and  _511
REMARK  208  A    between atoms: _511  and  _512
REMARK  209  A    between atoms: _521  and  _523
REMARK  210  A    between atoms: _523  and  _524
REMARK  211  A    between atoms: _523  and  _526
REMARK  212  A    between atoms: _526  and  _527
REMARK  213  A    between atoms: _527  and  _528
REMARK  214  A    between atoms: _528  and  _529
REMARK  215  A    between atoms: _529  and  _530
REMARK  216  A    between atoms: _534  and  _536
REMARK  217  A    between atoms: _536  and  _537
REMARK  218  A    between atoms: _536  and  _539
REMARK  219  A    between atoms: _539  and  _540
REMARK  220  A    between atoms: _545  and  _546
REMARK  221  A    between atoms: _548  and  _550
REMARK  222  A    between atoms: _550  and  _551
REMARK  223  A    between atoms: _553  and  _555
REMARK  224  A    between atoms: _555  and  _556
REMARK  225  A    between atoms: _555  and  _558
REMARK  226  A    between atoms: _558  and  _559
REMARK  227  A    between atoms: _565  and  _567
REMARK  228  A    between atoms: _567  and  _568
REMARK  229  A    between atoms: _567  and  _570
REMARK  230  A    between atoms: _570  and  _571
REMARK  231  A    between atoms: _576  and  _577
REMARK  232  A    between atoms: _579  and  _581
REMARK  233  A    between atoms: _581  and  _582
REMARK  234  A    between atoms: _581  and  _584
REMARK  235  A    between atoms: _584  and  _585
REMARK                            x       y       z     vdW  Elec       q    Type
REMARK                         _______ _______ _______ _____ _____    ______ ____
ROOT
ATOM      1  CA  PHE A   2      15.541  -4.310  32.463  0.00  0.00    +0.153 C 
ENDROOT
BRANCH   1   4
ATOM      2  C   MET A   1      17.924  -4.166  31.963  0.00  0.00    +0.238 C 
ATOM      3  O   MET A   1      18.237  -3.993  33.146  0.00  0.00    -0.274 OA
ATOM      4  N   PHE A   2      16.668  -4.262  31.546  0.00  0.00    -0.297 N 
ATOM      5  H   PHE A   2      16.483  -4.305  30.524  0.00  0.00    +0.150 HD
BRANCH   2   6
ATOM      6  CA  MET A   1      18.978  -4.223  30.871  0.00  0.00    +0.146 C 
BRANCH   6   7
ATOM      7  N   MET A   1      20.218  -3.635  31.349  0.00  0.00    -0.238 NA
ATOM      8  H   MET A   1      20.480  -3.745  32.349  0.00  0.00    +0.142 HD
ENDBRANCH   6   7
BRANCH   6   9
ATOM      9  CB  MET A   1      19.165  -5.695  30.449  0.00  0.00    +0.038 C 
BRANCH   9  10
ATOM     10  CG  MET A   1      20.559  -6.282  30.623  0.00  0.00    +0.060 C 
BRANCH  10  11
ATOM     11  SD  MET A   1      20.570  -8.107  30.515  0.00  0.00    -0.139 S 
ATOM     12  CE  MET A   1      22.023  -8.354  29.525  0.00  0.00    +0.069 C 
ENDBRANCH  10  11
ENDBRANCH   9  10
ENDBRANCH   6   9
ENDBRANCH   2   6
ENDBRANCH   1   4
BRANCH   1  13
ATOM     13  C   PHE A   2      14.561  -5.241  31.766  0.00  0.00    +0.241 C 
ATOM     14  N   CYS A   3      13.651  -5.861  32.506  0.00  0.00    -0.296 N 
ATOM     15  H   CYS A   3      13.619  -5.719  33.536  0.00  0.00    +0.150 HD
ATOM     16  O   PHE A   2      14.666  -5.439  30.557  0.00  0.00    -0.273 OA
BRANCH  14  17
ATOM     17  CA  CYS A   3      12.702  -6.741  31.852  0.00  0.00    +0.160 C 
BRANCH  17  18
ATOM     18  C   CYS A   3      11.275  -6.243  32.053  0.00  0.00    +0.242 C 
ATOM     19  O   CYS A   3      11.007  -5.432  32.941  0.00  0.00    -0.273 OA
ATOM     20  N   ALA A   4      10.370  -6.695  31.193  0.00  0.00    -0.298 N 
ATOM     21  H   ALA A   4      10.659  -7.363  30.450  0.00  0.00    +0.150 HD
BRANCH  20  22
ATOM     22  CA  ALA A   4       8.982  -6.271  31.274  0.00  0.00    +0.137 C 
ATOM     23  CB  ALA A   4       8.764  -5.001  30.431  0.00  0.00    +0.030 C 
BRANCH  22  24
ATOM     24  C   ALA A   4       8.051  -7.377  30.800  0.00  0.00    +0.227 C 
ATOM     25  O   ALA A   4       8.450  -8.279  30.063  0.00  0.00    -0.286 OA
ENDBRANCH  22  24
ENDBRANCH  20  22
ENDBRANCH  17  18
BRANCH  17  26
ATOM     26  CB  CYS A   3      12.890  -8.188  32.352  0.00  0.00    +0.098 C 
ATOM     27  SG  CYS A   3      11.958  -8.749  33.840  0.00  0.00    -0.080 S 
ENDBRANCH  17  26
ENDBRANCH  14  17
ENDBRANCH   1  13
BRANCH   1  28
ATOM     28  CB  PHE A   2      14.945  -2.905  32.728  0.00  0.00    +0.055 C 
BRANCH  28  29
ATOM     29  CG  PHE A   2      14.248  -2.272  31.544  0.00  0.00    -0.020 A 
ATOM     30  CD2 PHE A   2      12.928  -2.582  31.241  0.00  0.00    -0.004 A 
ATOM     31  CE2 PHE A   2      12.274  -1.953  30.195  0.00  0.00    -0.000 A 
ATOM     32  CZ  PHE A   2      12.932  -0.989  29.448  0.00  0.00    -0.000 A 
ATOM     33  CE1 PHE A   2      14.248  -0.672  29.737  0.00  0.00    -0.000 A 
ATOM     34  CD1 PHE A   2      14.894  -1.309  30.789  0.00  0.00    -0.004 A 
ENDBRANCH  28  29
ENDBRANCH   1  28
TORSDOF 14
REMARK  Name = ../refined-set-2016/1z71/1z71_pocket.pdb
REMARK  235 active torsions:
REMARK  status: ('A' for Active; 'I' for Inactive)
REMARK    1  A    between atoms: _1  and  _5
REMARK    2  A    between atoms: _5  and  _6
REMARK    3  A    between atoms: _5  and  _8
REMARK    4  A    between atoms: _8  and  _9
REMARK    5  A    between atoms: _12  and  _14
REMARK    6  A    between atoms: _14  and  _15
REMARK    7  A    between atoms: _14  and  _17
REMARK    8  A    between atoms: _20  and  _22
REMARK    9  A    between atoms: _22  and  _23
REMARK   10  A    between atoms: _22  and  _25
REMARK   11  A    between atoms: _25  and  _26
REMARK   12  A    between atoms: _26  and  _61
REMARK   13  A    between atoms: _27  and  _29
REMARK   14  A    between atoms: _29  and  _30
REMARK   15  A    between atoms: _32  and  _34
REMARK   16  A    between atoms: _34  and  _35
REMARK   17  A    between atoms: _38  and  _40
REMARK   18  A    between atoms: _40  and  _41
REMARK   19  A    between atoms: _44  and  _46
REMARK   20  A    between atoms: _46  and  _47
REMARK   21  A    between atoms: _46  and  _49
REMARK   22  A    between atoms: _49  and  _50
REMARK   23  A    between atoms: _55  and  _57
REMARK   24  A    between atoms: _57  and  _58
REMARK   25  A    between atoms: _57  and  _60
REMARK   26  A    between atoms: _60  and  _61
REMARK   27  A    between atoms: _62  and  _64
REMARK   28  A    between atoms: _64  and  _65
REMARK   29  A    between atoms: _64  and  _67
REMARK   30  A    between atoms: _67  and  _68
REMARK   31  A    between atoms: _71  and  _73
REMARK   32  A    between atoms: _73  and  _74
REMARK   33  A    between atoms: _73  and  _76
REMARK   34  A    between atoms: _76  and  _77
REMARK   35  A    between atoms: _82  and  _83
REMARK   36  A    between atoms: _86  and  _87
REMARK   37  A    between atoms: _92  and  _94
REMARK   38  A    between atoms: _94  and  _95
REMARK   39  A    between atoms: _94  and  _97
REMARK   40  A    between atoms: _97  and  _98
REMARK   41  A    between atoms: _108  and  _110
REMARK   42  A    between atoms: _110  and  _111
REMARK   43  A    between atoms: _110  and  _113
REMARK   44  A    between atoms: _113  and  _114
REMARK   45  A    between atoms: _114  and  _115
REMARK   46  A    between atoms: _115  and  _116
REMARK   47  A    between atoms: _116  and  _117
REMARK   48  A    between atoms: _121  and  _123
REMARK   49  A    between atoms: _123  and  _124
REMARK   50  A    between atoms: _123  and  _126
REMARK   51  A    between atoms: _126  and  _127
REMARK   52  A    between atoms: _132  and  _133
REMARK   53  A    between atoms: _135  and  _137
REMARK   54  A    between atoms: _137  and  _138
REMARK   55  A    between atoms: _137  and  _140
REMARK   56  A    between atoms: _140  and  _141
REMARK   57  A    between atoms: _146  and  _148
REMARK   58  A    between atoms: _148  and  _149
REMARK   59  A    between atoms: _148  and  _151
REMARK   60  A    between atoms: _151  and  _152
REMARK   61  A    between atoms: _162  and  _164
REMARK   62  A    between atoms: _164  and  _165
REMARK   63  A    between atoms: _164  and  _167
REMARK   64  A    between atoms: _167  and  _168
REMARK   65  A    between atoms: _168  and  _169
REMARK   66  A    between atoms: _169  and  _170
REMARK   67  A    between atoms: _179  and  _181
REMARK   68  A    between atoms: _181  and  _182
REMARK   69  A    between atoms: _181  and  _184
REMARK   70  A    between atoms: _184  and  _185
REMARK   71  A    between atoms: _185  and  _186
REMARK   72  A    between atoms: _189  and  _191
REMARK   73  A    between atoms: _191  and  _192
REMARK   74  A    between atoms: _191  and  _194
REMARK   75  A    between atoms: _194  and  _195
REMARK   76  A    between atoms: _200  and  _202
REMARK   77  A    between atoms: _202  and  _203
REMARK   78  A    between atoms: _202  and  _205
REMARK   79  A    between atoms: _205  and  _206
REMARK   80  A    between atoms: _209  and  _211
REMARK   81  A    between atoms: _211  and  _212
REMARK   82  A    between atoms: _211  and  _214
REMARK   83  A    between atoms: _214  and  _215
REMARK   84  A    between atoms: _218  and  _220
REMARK   85  A    between atoms: _220  and  _221
REMARK   86  A    between atoms: _220  and  _223
REMARK   87  A    between atoms: _223  and  _224
REMARK   88  A    between atoms: _227  and  _229
REMARK   89  A    between atoms: _229  and  _230
REMARK   90  A    between atoms: _229  and  _232
REMARK   91  A    between atoms: _235  and  _237
REMARK   92  A    between atoms: _237  and  _238
REMARK   93  A    between atoms: _240  and  _242
REMARK   94  A    between atoms: _242  and  _243
REMARK   95  A    between atoms: _242  and  _245
REMARK   96  A    between atoms: _245  and  _246
REMARK   97  A    between atoms: _251  and  _253
REMARK   98  A    between atoms: _253  and  _254
REMARK   99  A    between atoms: _253  and  _256
REMARK  100  A    between atoms: _256  and  _257
REMARK  101  A    between atoms: _260  and  _262
REMARK  102  A    between atoms: _262  and  _263
REMARK  103  A    between atoms: _262  and  _265
REMARK  104  A    between atoms: _265  and  _266
REMARK  105  A    between atoms: _269  and  _271
REMARK  106  A    between atoms: _271  and  _272
REMARK  107  A    between atoms: _271  and  _274
REMARK  108  A    between atoms: _274  and  _275
REMARK  109  A    between atoms: _275  and  _276
REMARK  110  A    between atoms: _276  and  _277
REMARK  111  A    between atoms: _286  and  _288
REMARK  112  A    between atoms: _288  and  _289
REMARK  113  A    between atoms: _288  and  _291
REMARK  114  A    between atoms: _291  and  _292
REMARK  115  A    between atoms: _295  and  _297
REMARK  116  A    between atoms: _297  and  _298
REMARK  117  A    between atoms: _297  and  _300
REMARK  118  A    between atoms: _300  and  _301
REMARK  119  A    between atoms: _301  and  _302
REMARK  120  A    between atoms: _302  and  _303
REMARK  121  A    between atoms: _312  and  _314
REMARK  122  A    between atoms: _314  and  _315
REMARK  123  A    between atoms: _314  and  _317
REMARK  124  A    between atoms: _317  and  _318
REMARK  125  A    between atoms: _318  and  _319
REMARK  126  A    between atoms: _321  and  _323
REMARK  127  A    between atoms: _323  and  _324
REMARK  128  A    between atoms: _323  and  _326
REMARK  129  A    between atoms: _326  and  _327
REMARK  130  A    between atoms: _333  and  _335
REMARK  131  A    between atoms: _335  and  _336
REMARK  132  A    between atoms: _335  and  _338
REMARK  133  A    between atoms: _340  and  _342
REMARK  134  A    between atoms: _342  and  _343
REMARK  135  A    between atoms: _346  and  _348
REMARK  136  A    between atoms: _348  and  _349
REMARK  137  A    between atoms: _351  and  _353
REMARK  138  A    between atoms: _353  and  _354
REMARK  139  A    between atoms: _353  and  _356
REMARK  140  A    between atoms: _356  and  _357
REMARK  141  A    between atoms: _360  and  _362
REMARK  142  A    between atoms: _362  and  _363
REMARK  143  A    between atoms: _366  and  _368
REMARK  144  A    between atoms: _368  and  _369
REMARK  145  A    between atoms: _368  and  _371
REMARK  146  A    between atoms: _371  and  _372
REMARK  147  A    between atoms: _372  and  _494
REMARK  148  A    between atoms: _373  and  _375
REMARK  149  A    between atoms: _375  and  _376
REMARK  150  A    between atoms: _375  and  _378
REMARK  151  A    between atoms: _378  and  _379
REMARK  152  A    between atoms: _379  and  _380
REMARK  153  A    between atoms: _383  and  _385
REMARK  154  A    between atoms: _385  and  _386
REMARK  155  A    between atoms: _388  and  _390
REMARK  156  A    between atoms: _390  and  _391
REMARK  157  A    between atoms: _390  and  _393
REMARK  158  A    between atoms: _393  and  _394
REMARK  159  A    between atoms: _397  and  _399
REMARK  160  A    between atoms: _399  and  _400
REMARK  161  A    between atoms: _399  and  _402
REMARK  162  A    between atoms: _402  and  _403
REMARK  163  A    between atoms: _405  and  _407
REMARK  164  A    between atoms: _407  and  _408
REMARK  165  A    between atoms: _410  and  _412
REMARK  166  A    between atoms: _412  and  _413
REMARK  167  A    between atoms: _415  and  _417
REMARK  168  A    between atoms: _417  and  _418
REMARK  169  A    between atoms: _417  and  _420
REMARK  170  A    between atoms: _420  and  _421
REMARK  171  A    between atoms: _427  and  _429
REMARK  172  A    between atoms: _429  and  _430
REMARK  173  A    between atoms: _429  and  _432
REMARK  174  A    between atoms: _432  and  _433
REMARK  175  A    between atoms: _436  and  _438
REMARK  176  A    between atoms: _438  and  _439
REMARK  177  A    between atoms: _438  and  _441
REMARK  178  A    between atoms: _444  and  _446
REMARK  179  A    between atoms: _446  and  _447
REMARK  180  A    between atoms: _446  and  _449
REMARK  181  A    between atoms: _449  and  _450
REMARK  182  A    between atoms: _452  and  _454
REMARK  183  A    between atoms: _454  and  _455
REMARK  184  A    between atoms: _454  and  _457
REMARK  185  A    between atoms: _457  and  _458
REMARK  186  A    between atoms: _468  and  _470
REMARK  187  A    between atoms: _470  and  _471
REMARK  188  A    between atoms: _473  and  _475
REMARK  189  A    between atoms: _475  and  _476
REMARK  190  A    between atoms: _475  and  _478
REMARK  191  A    between atoms: _478  and  _479
REMARK  192  A    between atoms: _479  and  _480
REMARK  193  A    between atoms: _483  and  _485
REMARK  194  A    between atoms: _485  and  _486
REMARK  195  A    between atoms: _488  and  _490
REMARK  196  A    between atoms: _490  and  _491
REMARK  197  A    between atoms: _490  and  _493
REMARK  198  A    between atoms: _493  and  _494
REMARK  199  A    between atoms: _495  and  _497
REMARK  200  A    between atoms: _497  and  _498
REMARK  201  A    between atoms: _497  and  _500
REMARK  202  A    between atoms: _500  and  _501
REMARK  203  A    between atoms: _504  and  _506
REMARK  204  A    between atoms: _506  and  _507
REMARK  205  A    between atoms: _506  and  _509
REMARK  206  A    between atoms: _509  and  _510
REMARK  207  A    between atoms: _510  and  _511
REMARK  208  A    between atoms: _511  and  _512
REMARK  209  A    between atoms: _521  and  _523
REMARK  210  A    between atoms: _523  and  _524
REMARK  211  A    between atoms: _523  and  _526
REMARK  212  A    between atoms: _526  and  _527
REMARK  213  A    between atoms: _527  and  _528
REMARK  214  A    between atoms: _528  and  _529
REMARK  215  A    between atoms: _529  and  _530
REMARK  216  A    between atoms: _534  and  _536
REMARK  217  A    between atoms: _536  and  _537
REMARK  218  A    between atoms: _536  and  _539
REMARK  219  A    between atoms: _539  and  _540
REMARK  220  A    between atoms: _545  and  _546
REMARK  221  A    between atoms: _548  and  _550
REMARK  222  A    between atoms: _550  and  _551
REMARK  223  A    between atoms: _553  and  _555
REMARK  224  A    between atoms: _555  and  _556
REMARK  225  A    between atoms: _555  and  _558
REMARK  226  A    between atoms: _558  and  _559
REMARK  227  A    between atoms: _565  and  _567
REMARK  228  A    between atoms: _567  and  _568
REMARK  229  A    between atoms: _567  and  _570
REMARK  230  A    between atoms: _570  and  _571
REMARK  231  A    between atoms: _576  and  _577
REMARK  232  A    between atoms: _579  and  _581
REMARK  233  A    between atoms: _581  and  _582
REMARK  234  A    between atoms: _581  and  _584
REMARK  235  A    between atoms: _584  and  _585
REMARK                            x       y       z     vdW  Elec       q    Type
REMARK                         _______ _______ _______ _____ _____    ______ ____
ROOT
ATOM      1  CA  SER A   8       7.693 -15.657  23.349  0.00  0.00    +0.160 C 
ENDROOT
BRANCH   1   2
ATOM      2  N   SER A   8       8.490 -16.875  23.476  0.00  0.00    -0.296 N 
ATOM      3  C   ASP A   7       9.794 -16.840  23.713  0.00  0.00    +0.243 C 
ATOM      4  O   ASP A   7      10.418 -15.786  23.858  0.00  0.00    -0.273 OA
ATOM      5  H   SER A   8       8.020 -17.798  23.377  0.00  0.00    +0.150 HD
BRANCH   3   6
ATOM      6  CA  ASP A   7      10.509 -18.177  23.826  0.00  0.00    +0.176 C 
BRANCH   6   7
ATOM      7  N   ASP A   7      11.824 -17.877  24.351  0.00  0.00    -0.295 N 
ATOM      8  C   GLY A   6      12.004 -17.648  25.648  0.00  0.00    +0.241 C 
ATOM      9  O   GLY A   6      11.095 -17.707  26.478  0.00  0.00    -0.273 OA
ATOM     10  H   ASP A   7      12.638 -17.840  23.705  0.00  0.00    +0.150 HD
BRANCH   8  11
ATOM     11  CA  GLY A   6      13.425 -17.278  26.060  0.00  0.00    +0.149 C 
BRANCH  11  12
ATOM     12  N   GLY A   6      13.407 -15.836  26.250  0.00  0.00    -0.297 N 
ATOM     13  H   GLY A   6      12.843 -15.440  27.029  0.00  0.00    +0.150 HD
ATOM     14  C   GLU A   5      14.084 -15.009  25.465  0.00  0.00    +0.243 C 
ATOM     15  O   GLU A   5      14.800 -15.397  24.543  0.00  0.00    -0.273 OA
BRANCH  14  16
ATOM     16  CA  GLU A   5      13.949 -13.529  25.774  0.00  0.00    +0.176 C 
BRANCH  16  17
ATOM     17  N   GLU A   5      14.916 -12.780  24.998  0.00  0.00    -0.295 N 
ATOM     18  C   TRP A   4      15.136 -11.490  25.215  0.00  0.00    +0.241 C 
ATOM     19  O   TRP A   4      14.537 -10.831  26.067  0.00  0.00    -0.273 OA
ATOM     20  H   GLU A   5      15.452 -13.266  24.251  0.00  0.00    +0.150 HD
BRANCH  18  21
ATOM     21  CA  TRP A   4      16.194 -10.874  24.313  0.00  0.00    +0.153 C 
BRANCH  21  22
ATOM     22  N   TRP A   4      16.303  -9.422  24.290  0.00  0.00    -0.297 N 
ATOM     23  H   TRP A   4      16.165  -8.869  25.160  0.00  0.00    +0.150 HD
ATOM     24  C   SER A   3      16.582  -8.813  23.141  0.00  0.00    +0.243 C 
ATOM     25  O   SER A   3      16.711  -9.430  22.091  0.00  0.00    -0.273 OA
BRANCH  24  26
ATOM     26  CA  SER A   3      16.735  -7.298  23.157  0.00  0.00    +0.178 C 
BRANCH  26  27
ATOM     27  N   SER A   3      15.488  -6.547  23.209  0.00  0.00    -0.295 N 
ATOM     28  H   SER A   3      14.891  -6.598  24.059  0.00  0.00    +0.150 HD
ATOM     29  C   VAL A   2      15.105  -5.796  22.178  0.00  0.00    +0.241 C 
ATOM     30  O   VAL A   2      15.747  -5.716  21.129  0.00  0.00    -0.273 OA
BRANCH  29  31
ATOM     31  CA  VAL A   2      13.808  -5.022  22.338  0.00  0.00    +0.148 C 
BRANCH  31  32
ATOM     32  N   VAL A   2      14.125  -3.597  22.298  0.00  0.00    -0.297 N 
ATOM     33  C   ILE A   1      15.065  -3.087  23.090  0.00  0.00    +0.238 C 
ATOM     34  O   ILE A   1      15.692  -3.760  23.904  0.00  0.00    -0.274 OA
ATOM     35  H   VAL A   2      13.610  -2.974  21.643  0.00  0.00    +0.150 HD
BRANCH  33  36
ATOM     36  CA  ILE A   1      15.341  -1.603  22.968  0.00  0.00    +0.145 C 
BRANCH  36  37
ATOM     37  N   ILE A   1      15.234  -1.057  24.307  0.00  0.00    -0.238 NA
ATOM     38  H   ILE A   1      15.757  -1.514  25.081  0.00  0.00    +0.142 HD
ENDBRANCH  36  37
BRANCH  36  39
ATOM     39  CB  ILE A   1      16.763  -1.433  22.395  0.00  0.00    +0.025 C 
ATOM     40  CG2 ILE A   1      16.840  -2.104  20.999  0.00  0.00    +0.002 C 
BRANCH  39  41
ATOM     41  CG1 ILE A   1      17.136   0.050  22.341  0.00  0.00    +0.002 C 
ATOM     42  CD1 ILE A   1      18.603   0.291  22.008  0.00  0.00    +0.000 C 
ENDBRANCH  39  41
ENDBRANCH  36  39
ENDBRANCH  33  36
ENDBRANCH  31  32
BRANCH  31  43
ATOM     43  CB  VAL A   2      12.864  -5.430  21.191  0.00  0.00    +0.027 C 
ATOM     44  CG2 VAL A   2      12.570  -6.952  21.273  0.00  0.00    +0.002 C 
ATOM     45  CG1 VAL A   2      11.573  -4.620  21.264  0.00  0.00    +0.002 C 
ENDBRANCH  31  43
ENDBRANCH  29  31
ENDBRANCH  26  27
BRANCH  26  46
ATOM     46  CB  SER A   3      17.652  -6.889  24.319  0.00  0.00    +0.166 C 
BRANCH  46  47
ATOM     47  OG  SER A   3      18.921  -7.528  24.226  0.00  0.00    -0.380 OA
ATOM     48  H   SER A   3      19.357  -7.272  23.375  0.00  0.00    +0.211 HD
ENDBRANCH  46  47
ENDBRANCH  26  46
ENDBRANCH  24  26
ENDBRANCH  21  22
BRANCH  21  49
ATOM     49  CB  TRP A   4      17.557 -11.495  24.652  0.00  0.00    +0.057 C 
BRANCH  49  50
ATOM     50  CG  TRP A   4      18.095 -11.112  26.010  0.00  0.00    -0.002 A 
ATOM     51  CD2 TRP A   4      17.903 -11.825  27.240  0.00  0.00    +0.013 A 
ATOM     52  CE2 TRP A   4      18.567 -11.101  28.252  0.00  0.00    +0.056 A 
ATOM     53  CZ2 TRP A   4      18.582 -11.519  29.584  0.00  0.00    +0.017 A 
ATOM     54  CH2 TRP A   4      17.919 -12.675  29.889  0.00  0.00    +0.001 A 
ATOM     55  CZ3 TRP A   4      17.249 -13.418  28.906  0.00  0.00    +0.000 A 
ATOM     56  NE1 TRP A   4      19.137 -10.003  27.665  0.00  0.00    -0.352 N 
ATOM     57  HE1 TRP A   4      19.697  -9.277  28.155  0.00  0.00    +0.166 HD
ATOM     58  CE3 TRP A   4      17.233 -13.005  27.583  0.00  0.00    +0.001 A 
ATOM     59  CD1 TRP A   4      18.847 -10.018  26.319  0.00  0.00    +0.068 A 
ENDBRANCH  49  50
ENDBRANCH  21  49
ENDBRANCH  18  21
ENDBRANCH  16  17
ENDBRANCH  14  16
ENDBRANCH  11  12
BRANCH  11  60
ATOM     60  CB  GLY A   6      13.847 -17.949  27.367  0.00  0.00    +0.041 C 
BRANCH  60  61
ATOM     61  CG  GLY A   6      15.193 -17.420  27.841  0.00  0.00    +0.116 C 
BRANCH  61  62
ATOM     62  CD  GLY A   6      15.611 -17.947  29.179  0.00  0.00    +0.365 C 
ATOM     63  OE2 GLY A   6      15.371 -17.247  30.182  0.00  0.00    -0.246 OA
ATOM     64  OE1 GLY A   6      16.176 -19.062  29.232  0.00  0.00    -0.246 OA
ENDBRANCH  61  62
ENDBRANCH  60  61
ENDBRANCH  11  60
ENDBRANCH   8  11
ENDBRANCH   6   7
ENDBRANCH   3   6
ENDBRANCH   1   2
BRANCH   1  65
ATOM     65  C   SER A   8       6.411 -15.789  24.133  0.00  0.00    +0.242 C 
ATOM     66  N   GLY A   9       6.175 -14.826  25.014  0.00  0.00    -0.297 N 
ATOM     67  H   GLY A   9       6.872 -14.061  25.121  0.00  0.00    +0.150 HD
ATOM     68  O   SER A   8       5.641 -16.726  23.922  0.00  0.00    -0.273 OA
BRANCH  66  69
ATOM     69  CA  GLY A   9       4.977 -14.803  25.834  0.00  0.00    +0.160 C 
BRANCH  69  70
ATOM     70  C   GLY A   9       4.755 -16.065  26.666  0.00  0.00    +0.241 C 
ATOM     71  N   GLY A  10       5.814 -16.602  27.263  0.00  0.00    -0.298 N 
ATOM     72  H   GLY A  10       6.754 -16.177  27.135  0.00  0.00    +0.150 HD
ATOM     73  O   GLY A   9       3.632 -16.552  26.764  0.00  0.00    -0.273 OA
BRANCH  71  74
ATOM     74  CA  GLY A  10       5.657 -17.790  28.100  0.00  0.00    +0.137 C 
BRANCH  74  75
ATOM     75  C   GLY A  10       5.377 -17.350  29.531  0.00  0.00    +0.227 C 
ATOM     76  O   GLY A  10       5.903 -16.333  29.982  0.00  0.00    -0.286 OA
ENDBRANCH  74  75
BRANCH  74  77
ATOM     77  CB  GLY A  10       6.924 -18.646  28.095  0.00  0.00    +0.031 C 
BRANCH  77  78
ATOM     78  CG  GLY A  10       7.305 -19.253  26.761  0.00  0.00    +0.045 C 
BRANCH  78  79
ATOM     79  CD  GLY A  10       8.530 -20.130  26.965  0.00  0.00    +0.174 C 
BRANCH  79  80
ATOM     80  NE  GLY A  10       9.149 -20.564  25.720  0.00  0.00    -0.265 N 
ATOM     81  CZ  GLY A  10      10.333 -21.164  25.656  0.00  0.00    +0.342 C 
ATOM     82  NH2 GLY A  10      11.020 -21.399  26.767  0.00  0.00    -0.292 N 
ATOM     83 HH21 GLY A  10      10.632 -21.114  27.689  0.00  0.00    +0.255 HD
ATOM     84 HH22 GLY A  10      11.947 -21.869  26.716  0.00  0.00    +0.255 HD
ATOM     85  NH1 GLY A  10      10.837 -21.523  24.485  0.00  0.00    -0.292 N 
ATOM     86 HH11 GLY A  10      11.764 -21.992  24.440  0.00  0.00    +0.255 HD
ATOM     87 HH12 GLY A  10      10.306 -21.336  23.611  0.00  0.00    +0.255 HD
ATOM     88  HE  GLY A  10       8.636 -20.395  24.831  0.00  0.00    +0.259 HD
ENDBRANCH  79  80
ENDBRANCH  78  79
ENDBRANCH  77  78
ENDBRANCH  74  77
ENDBRANCH  71  74
ENDBRANCH  69  70
BRANCH  69  89
ATOM     89  CB  GLY A   9       3.745 -14.543  24.954  0.00  0.00    +0.143 C 
BRANCH  89  90
ATOM     90  CG  GLY A   9       2.519 -14.119  25.770  0.00  0.00    +0.367 C 
ATOM     91  OD2 GLY A   9       2.661 -13.236  26.637  0.00  0.00    -0.246 OA
ATOM     92  OD1 GLY A   9       1.418 -14.664  25.547  0.00  0.00    -0.246 OA
ENDBRANCH  89  90
ENDBRANCH  69  89
ENDBRANCH  66  69
ENDBRANCH   1  65
BRANCH   1  93
ATOM     93  CB  SER A   8       7.335 -15.391  21.887  0.00  0.00    +0.098 C 
BRANCH  93  94
ATOM     94  SG  SER A   8       8.791 -15.178  20.828  0.00  0.00    -0.080 S 
BRANCH  94  95
ATOM     95  SG  TRP A   4       7.975 -14.713  19.019  0.00  0.00    -0.080 S 
BRANCH  95  96
ATOM     96  CB  TRP A   4       7.715 -12.891  19.097  0.00  0.00    +0.098 C 
BRANCH  96  97
ATOM     97  CA  TRP A   4       8.979 -12.131  19.430  0.00  0.00    +0.160 C 
BRANCH  97  98
ATOM     98  C   TRP A   4       9.842 -11.930  18.191  0.00  0.00    +0.242 C 
ATOM     99  O   TRP A   4      10.032 -10.793  17.774  0.00  0.00    -0.273 OA
ATOM    100  N   GLU A   5      10.385 -13.011  17.629  0.00  0.00    -0.297 N 
ATOM    101  H   GLU A   5      10.186 -13.946  18.038  0.00  0.00    +0.150 HD
BRANCH 100 102
ATOM    102  CA  GLU A   5      11.252 -12.921  16.455  0.00  0.00    +0.149 C 
BRANCH 102 103
ATOM    103  C   GLU A   5      10.823 -11.864  15.438  0.00  0.00    +0.241 C 
ATOM    104  N   GLY A   6      11.731 -10.940  15.135  0.00  0.00    -0.295 N 
ATOM    105  H   GLY A   6      12.671 -10.979  15.579  0.00  0.00    +0.150 HD
ATOM    106  O   GLU A   5       9.696 -11.886  14.939  0.00  0.00    -0.273 OA
BRANCH 104 107
ATOM    107  CA  GLY A   6      11.427  -9.877  14.191  0.00  0.00    +0.176 C 
BRANCH 107 108
ATOM    108  C   GLY A   6      11.265  -8.528  14.875  0.00  0.00    +0.243 C 
ATOM    109  N   ASP A   7      10.935  -8.552  16.165  0.00  0.00    -0.296 N 
ATOM    110  H   ASP A   7      10.803  -9.473  16.629  0.00  0.00    +0.150 HD
ATOM    111  O   GLY A   6      11.437  -7.484  14.246  0.00  0.00    -0.273 OA
BRANCH 109 112
ATOM    112  CA  ASP A   7      10.750  -7.332  16.958  0.00  0.00    +0.160 C 
BRANCH 112 113
ATOM    113  C   ASP A   7      12.062  -6.778  17.497  0.00  0.00    +0.241 C 
ATOM    114  O   ASP A   7      12.120  -5.631  17.943  0.00  0.00    -0.273 OA
ATOM    115  N   SER A   8      13.107  -7.600  17.469  0.00  0.00    -0.295 N 
ATOM    116  H   SER A   8      12.981  -8.563  17.097  0.00  0.00    +0.150 HD
BRANCH 115 117
ATOM    117  CA  SER A   8      14.426  -7.192  17.945  0.00  0.00    +0.178 C 
BRANCH 117 118
ATOM    118  C   SER A   8      14.791  -5.807  17.433  0.00  0.00    +0.243 C 
ATOM    119  N   GLY A   9      15.416  -4.997  18.283  0.00  0.00    -0.295 N 
ATOM    120  H   GLY A   9      15.612  -5.319  19.252  0.00  0.00    +0.150 HD
ATOM    121  O   SER A   8      14.527  -5.487  16.278  0.00  0.00    -0.273 OA
BRANCH 119 122
ATOM    122  CA  GLY A   9      15.827  -3.668  17.869  0.00  0.00    +0.176 C 
BRANCH 122 123
ATOM    123  C   GLY A   9      14.759  -2.597  17.946  0.00  0.00    +0.243 C 
ATOM    124  N   GLY A  10      13.505  -3.018  18.084  0.00  0.00    -0.296 N 
ATOM    125  H   GLY A  10      13.313  -4.039  18.124  0.00  0.00    +0.150 HD
ATOM    126  O   GLY A   9      15.074  -1.407  17.874  0.00  0.00    -0.273 OA
BRANCH 124 127
ATOM    127  CA  GLY A  10      12.398  -2.083  18.180  0.00  0.00    +0.163 C 
BRANCH 127 128
ATOM    128  C   GLY A  10      12.422  -1.336  19.498  0.00  0.00    +0.229 C 
ATOM    129  O   GLY A  10      13.119  -1.727  20.428  0.00  0.00    -0.286 OA
ENDBRANCH 127 128
ENDBRANCH 124 127
ENDBRANCH 122 123
ENDBRANCH 119 122
ENDBRANCH 117 118
BRANCH 117 130
ATOM    130  CB  SER A   8      15.484  -8.185  17.455  0.00  0.00    +0.166 C 
BRANCH 130 131
ATOM    131  OG  SER A   8      15.270  -9.477  17.992  0.00  0.00    -0.380 OA
ATOM    132  H   SER A   8      14.378  -9.805  17.714  0.00  0.00    +0.211 HD
ENDBRANCH 130 131
ENDBRANCH 117 130
ENDBRANCH 115 117
ENDBRANCH 112 113
BRANCH 112 133
ATOM    133  CB  ASP A   7       9.816  -7.610  18.131  0.00  0.00    +0.143 C 
BRANCH 133 134
ATOM    134  CG  ASP A   7       8.386  -7.850  17.689  0.00  0.00    +0.367 C 
ATOM    135  OD2 ASP A   7       7.681  -8.620  18.367  0.00  0.00    -0.246 OA
ATOM    136  OD1 ASP A   7       7.965  -7.252  16.675  0.00  0.00    -0.246 OA
ENDBRANCH 133 134
ENDBRANCH 112 133
ENDBRANCH 109 112
ENDBRANCH 107 108
ENDBRANCH 104 107
ENDBRANCH 102 103
BRANCH 102 137
ATOM    137  CB  GLU A   5      11.360 -14.287  15.772  0.00  0.00    +0.041 C 
BRANCH 137 138
ATOM    138  CG  GLU A   5      12.255 -14.283  14.539  0.00  0.00    +0.116 C 
BRANCH 138 139
ATOM    139  CD  GLU A   5      12.585 -15.680  14.051  0.00  0.00    +0.365 C 
ATOM    140  OE2 GLU A   5      11.716 -16.570  14.158  0.00  0.00    -0.246 OA
ATOM    141  OE1 GLU A   5      13.710 -15.882  13.547  0.00  0.00    -0.246 OA
ENDBRANCH 138 139
ENDBRANCH 137 138
ENDBRANCH 102 137
ENDBRANCH 100 102
ENDBRANCH  97  98
BRANCH  97 144
ATOM    142  C   SER A   3       8.245 -10.674  21.221  0.00  0.00    +0.241 C 
ATOM    143  O   SER A   3       8.138 -11.614  22.006  0.00  0.00    -0.273 OA
ATOM    144  N   TRP A   4       8.626 -10.827  19.962  0.00  0.00    -0.296 N 
ATOM    145  H   TRP A   4       8.673  -9.995  19.340  0.00  0.00    +0.150 HD
BRANCH 142 146
ATOM    146  CA  SER A   3       7.910  -9.253  21.673  0.00  0.00    +0.149 C 
ATOM    147  CB  SER A   3       9.165  -8.406  21.723  0.00  0.00    +0.031 C 
BRANCH 146 149
ATOM    148  C   VAL A   2       6.073  -9.661  23.184  0.00  0.00    +0.241 C 
ATOM    149  N   SER A   3       7.371  -9.449  22.999  0.00  0.00    -0.297 N 
ATOM    150  H   SER A   3       8.008  -9.424  23.820  0.00  0.00    +0.150 HD
ATOM    151  O   VAL A   2       5.245  -9.619  22.268  0.00  0.00    -0.273 OA
BRANCH 148 152
ATOM    152  CA  VAL A   2       5.628  -9.932  24.611  0.00  0.00    +0.160 C 
BRANCH 152 155
ATOM    153  C   ILE A   1       3.511  -9.946  25.781  0.00  0.00    +0.240 C 
ATOM    154  O   ILE A   1       4.074 -10.095  26.865  0.00  0.00    -0.274 OA
ATOM    155  N   VAL A   2       4.175  -9.838  24.638  0.00  0.00    -0.297 N 
ATOM    156  H   VAL A   2       3.653  -9.685  23.752  0.00  0.00    +0.150 HD
BRANCH 153 157
ATOM    157  CA  ILE A   1       2.003  -9.863  25.695  0.00  0.00    +0.169 C 
BRANCH 157 158
ATOM    158  N   ILE A   1       1.428 -10.610  26.795  0.00  0.00    -0.236 NA
ATOM    159  H   ILE A   1       1.866 -11.505  27.093  0.00  0.00    +0.142 HD
ENDBRANCH 157 158
ENDBRANCH 153 157
ENDBRANCH 152 155
BRANCH 152 160
ATOM    160  CB  VAL A   2       6.049 -11.349  25.015  0.00  0.00    +0.143 C 
BRANCH 160 161
ATOM    161  CG  VAL A   2       7.550 -11.482  25.257  0.00  0.00    +0.367 C 
ATOM    162  OD2 VAL A   2       8.035 -12.631  25.359  0.00  0.00    -0.246 OA
ATOM    163  OD1 VAL A   2       8.237 -10.448  25.353  0.00  0.00    -0.246 OA
ENDBRANCH 160 161
ENDBRANCH 152 160
ENDBRANCH 148 152
ENDBRANCH 146 149
ENDBRANCH 142 146
ENDBRANCH  97 144
ENDBRANCH  96  97
ENDBRANCH  95  96
ENDBRANCH  94  95
ENDBRANCH  93  94
ENDBRANCH   1  93
TORSDOF 70
REMARK  Name = ../refined-set-2016/1z71/1z71_pocket.pdb
REMARK  235 active torsions:
REMARK  status: ('A' for Active; 'I' for Inactive)
REMARK    1  A    between atoms: _1  and  _5
REMARK    2  A    between atoms: _5  and  _6
REMARK    3  A    between atoms: _5  and  _8
REMARK    4  A    between atoms: _8  and  _9
REMARK    5  A    between atoms: _12  and  _14
REMARK    6  A    between atoms: _14  and  _15
REMARK    7  A    between atoms: _14  and  _17
REMARK    8  A    between atoms: _20  and  _22
REMARK    9  A    between atoms: _22  and  _23
REMARK   10  A    between atoms: _22  and  _25
REMARK   11  A    between atoms: _25  and  _26
REMARK   12  A    between atoms: _26  and  _61
REMARK   13  A    between atoms: _27  and  _29
REMARK   14  A    between atoms: _29  and  _30
REMARK   15  A    between atoms: _32  and  _34
REMARK   16  A    between atoms: _34  and  _35
REMARK   17  A    between atoms: _38  and  _40
REMARK   18  A    between atoms: _40  and  _41
REMARK   19  A    between atoms: _44  and  _46
REMARK   20  A    between atoms: _46  and  _47
REMARK   21  A    between atoms: _46  and  _49
REMARK   22  A    between atoms: _49  and  _50
REMARK   23  A    between atoms: _55  and  _57
REMARK   24  A    between atoms: _57  and  _58
REMARK   25  A    between atoms: _57  and  _60
REMARK   26  A    between atoms: _60  and  _61
REMARK   27  A    between atoms: _62  and  _64
REMARK   28  A    between atoms: _64  and  _65
REMARK   29  A    between atoms: _64  and  _67
REMARK   30  A    between atoms: _67  and  _68
REMARK   31  A    between atoms: _71  and  _73
REMARK   32  A    between atoms: _73  and  _74
REMARK   33  A    between atoms: _73  and  _76
REMARK   34  A    between atoms: _76  and  _77
REMARK   35  A    between atoms: _82  and  _83
REMARK   36  A    between atoms: _86  and  _87
REMARK   37  A    between atoms: _92  and  _94
REMARK   38  A    between atoms: _94  and  _95
REMARK   39  A    between atoms: _94  and  _97
REMARK   40  A    between atoms: _97  and  _98
REMARK   41  A    between atoms: _108  and  _110
REMARK   42  A    between atoms: _110  and  _111
REMARK   43  A    between atoms: _110  and  _113
REMARK   44  A    between atoms: _113  and  _114
REMARK   45  A    between atoms: _114  and  _115
REMARK   46  A    between atoms: _115  and  _116
REMARK   47  A    between atoms: _116  and  _117
REMARK   48  A    between atoms: _121  and  _123
REMARK   49  A    between atoms: _123  and  _124
REMARK   50  A    between atoms: _123  and  _126
REMARK   51  A    between atoms: _126  and  _127
REMARK   52  A    between atoms: _132  and  _133
REMARK   53  A    between atoms: _135  and  _137
REMARK   54  A    between atoms: _137  and  _138
REMARK   55  A    between atoms: _137  and  _140
REMARK   56  A    between atoms: _140  and  _141
REMARK   57  A    between atoms: _146  and  _148
REMARK   58  A    between atoms: _148  and  _149
REMARK   59  A    between atoms: _148  and  _151
REMARK   60  A    between atoms: _151  and  _152
REMARK   61  A    between atoms: _162  and  _164
REMARK   62  A    between atoms: _164  and  _165
REMARK   63  A    between atoms: _164  and  _167
REMARK   64  A    between atoms: _167  and  _168
REMARK   65  A    between atoms: _168  and  _169
REMARK   66  A    between atoms: _169  and  _170
REMARK   67  A    between atoms: _179  and  _181
REMARK   68  A    between atoms: _181  and  _182
REMARK   69  A    between atoms: _181  and  _184
REMARK   70  A    between atoms: _184  and  _185
REMARK   71  A    between atoms: _185  and  _186
REMARK   72  A    between atoms: _189  and  _191
REMARK   73  A    between atoms: _191  and  _192
REMARK   74  A    between atoms: _191  and  _194
REMARK   75  A    between atoms: _194  and  _195
REMARK   76  A    between atoms: _200  and  _202
REMARK   77  A    between atoms: _202  and  _203
REMARK   78  A    between atoms: _202  and  _205
REMARK   79  A    between atoms: _205  and  _206
REMARK   80  A    between atoms: _209  and  _211
REMARK   81  A    between atoms: _211  and  _212
REMARK   82  A    between atoms: _211  and  _214
REMARK   83  A    between atoms: _214  and  _215
REMARK   84  A    between atoms: _218  and  _220
REMARK   85  A    between atoms: _220  and  _221
REMARK   86  A    between atoms: _220  and  _223
REMARK   87  A    between atoms: _223  and  _224
REMARK   88  A    between atoms: _227  and  _229
REMARK   89  A    between atoms: _229  and  _230
REMARK   90  A    between atoms: _229  and  _232
REMARK   91  A    between atoms: _235  and  _237
REMARK   92  A    between atoms: _237  and  _238
REMARK   93  A    between atoms: _240  and  _242
REMARK   94  A    between atoms: _242  and  _243
REMARK   95  A    between atoms: _242  and  _245
REMARK   96  A    between atoms: _245  and  _246
REMARK   97  A    between atoms: _251  and  _253
REMARK   98  A    between atoms: _253  and  _254
REMARK   99  A    between atoms: _253  and  _256
REMARK  100  A    between atoms: _256  and  _257
REMARK  101  A    between atoms: _260  and  _262
REMARK  102  A    between atoms: _262  and  _263
REMARK  103  A    between atoms: _262  and  _265
REMARK  104  A    between atoms: _265  and  _266
REMARK  105  A    between atoms: _269  and  _271
REMARK  106  A    between atoms: _271  and  _272
REMARK  107  A    between atoms: _271  and  _274
REMARK  108  A    between atoms: _274  and  _275
REMARK  109  A    between atoms: _275  and  _276
REMARK  110  A    between atoms: _276  and  _277
REMARK  111  A    between atoms: _286  and  _288
REMARK  112  A    between atoms: _288  and  _289
REMARK  113  A    between atoms: _288  and  _291
REMARK  114  A    between atoms: _291  and  _292
REMARK  115  A    between atoms: _295  and  _297
REMARK  116  A    between atoms: _297  and  _298
REMARK  117  A    between atoms: _297  and  _300
REMARK  118  A    between atoms: _300  and  _301
REMARK  119  A    between atoms: _301  and  _302
REMARK  120  A    between atoms: _302  and  _303
REMARK  121  A    between atoms: _312  and  _314
REMARK  122  A    between atoms: _314  and  _315
REMARK  123  A    between atoms: _314  and  _317
REMARK  124  A    between atoms: _317  and  _318
REMARK  125  A    between atoms: _318  and  _319
REMARK  126  A    between atoms: _321  and  _323
REMARK  127  A    between atoms: _323  and  _324
REMARK  128  A    between atoms: _323  and  _326
REMARK  129  A    between atoms: _326  and  _327
REMARK  130  A    between atoms: _333  and  _335
REMARK  131  A    between atoms: _335  and  _336
REMARK  132  A    between atoms: _335  and  _338
REMARK  133  A    between atoms: _340  and  _342
REMARK  134  A    between atoms: _342  and  _343
REMARK  135  A    between atoms: _346  and  _348
REMARK  136  A    between atoms: _348  and  _349
REMARK  137  A    between atoms: _351  and  _353
REMARK  138  A    between atoms: _353  and  _354
REMARK  139  A    between atoms: _353  and  _356
REMARK  140  A    between atoms: _356  and  _357
REMARK  141  A    between atoms: _360  and  _362
REMARK  142  A    between atoms: _362  and  _363
REMARK  143  A    between atoms: _366  and  _368
REMARK  144  A    between atoms: _368  and  _369
REMARK  145  A    between atoms: _368  and  _371
REMARK  146  A    between atoms: _371  and  _372
REMARK  147  A    between atoms: _372  and  _494
REMARK  148  A    between atoms: _373  and  _375
REMARK  149  A    between atoms: _375  and  _376
REMARK  150  A    between atoms: _375  and  _378
REMARK  151  A    between atoms: _378  and  _379
REMARK  152  A    between atoms: _379  and  _380
REMARK  153  A    between atoms: _383  and  _385
REMARK  154  A    between atoms: _385  and  _386
REMARK  155  A    between atoms: _388  and  _390
REMARK  156  A    between atoms: _390  and  _391
REMARK  157  A    between atoms: _390  and  _393
REMARK  158  A    between atoms: _393  and  _394
REMARK  159  A    between atoms: _397  and  _399
REMARK  160  A    between atoms: _399  and  _400
REMARK  161  A    between atoms: _399  and  _402
REMARK  162  A    between atoms: _402  and  _403
REMARK  163  A    between atoms: _405  and  _407
REMARK  164  A    between atoms: _407  and  _408
REMARK  165  A    between atoms: _410  and  _412
REMARK  166  A    between atoms: _412  and  _413
REMARK  167  A    between atoms: _415  and  _417
REMARK  168  A    between atoms: _417  and  _418
REMARK  169  A    between atoms: _417  and  _420
REMARK  170  A    between atoms: _420  and  _421
REMARK  171  A    between atoms: _427  and  _429
REMARK  172  A    between atoms: _429  and  _430
REMARK  173  A    between atoms: _429  and  _432
REMARK  174  A    between atoms: _432  and  _433
REMARK  175  A    between atoms: _436  and  _438
REMARK  176  A    between atoms: _438  and  _439
REMARK  177  A    between atoms: _438  and  _441
REMARK  178  A    between atoms: _444  and  _446
REMARK  179  A    between atoms: _446  and  _447
REMARK  180  A    between atoms: _446  and  _449
REMARK  181  A    between atoms: _449  and  _450
REMARK  182  A    between atoms: _452  and  _454
REMARK  183  A    between atoms: _454  and  _455
REMARK  184  A    between atoms: _454  and  _457
REMARK  185  A    between atoms: _457  and  _458
REMARK  186  A    between atoms: _468  and  _470
REMARK  187  A    between atoms: _470  and  _471
REMARK  188  A    between atoms: _473  and  _475
REMARK  189  A    between atoms: _475  and  _476
REMARK  190  A    between atoms: _475  and  _478
REMARK  191  A    between atoms: _478  and  _479
REMARK  192  A    between atoms: _479  and  _480
REMARK  193  A    between atoms: _483  and  _485
REMARK  194  A    between atoms: _485  and  _486
REMARK  195  A    between atoms: _488  and  _490
REMARK  196  A    between atoms: _490  and  _491
REMARK  197  A    between atoms: _490  and  _493
REMARK  198  A    between atoms: _493  and  _494
REMARK  199  A    between atoms: _495  and  _497
REMARK  200  A    between atoms: _497  and  _498
REMARK  201  A    between atoms: _497  and  _500
REMARK  202  A    between atoms: _500  and  _501
REMARK  203  A    between atoms: _504  and  _506
REMARK  204  A    between atoms: _506  and  _507
REMARK  205  A    between atoms: _506  and  _509
REMARK  206  A    between atoms: _509  and  _510
REMARK  207  A    between atoms: _510  and  _511
REMARK  208  A    between atoms: _511  and  _512
REMARK  209  A    between atoms: _521  and  _523
REMARK  210  A    between atoms: _523  and  _524
REMARK  211  A    between atoms: _523  and  _526
REMARK  212  A    between atoms: _526  and  _527
REMARK  213  A    between atoms: _527  and  _528
REMARK  214  A    between atoms: _528  and  _529
REMARK  215  A    between atoms: _529  and  _530
REMARK  216  A    between atoms: _534  and  _536
REMARK  217  A    between atoms: _536  and  _537
REMARK  218  A    between atoms: _536  and  _539
REMARK  219  A    between atoms: _539  and  _540
REMARK  220  A    between atoms: _545  and  _546
REMARK  221  A    between atoms: _548  and  _550
REMARK  222  A    between atoms: _550  and  _551
REMARK  223  A    between atoms: _553  and  _555
REMARK  224  A    between atoms: _555  and  _556
REMARK  225  A    between atoms: _555  and  _558
REMARK  226  A    between atoms: _558  and  _559
REMARK  227  A    between atoms: _565  and  _567
REMARK  228  A    between atoms: _567  and  _568
REMARK  229  A    between atoms: _567  and  _570
REMARK  230  A    between atoms: _570  and  _571
REMARK  231  A    between atoms: _576  and  _577
REMARK  232  A    between atoms: _579  and  _581
REMARK  233  A    between atoms: _581  and  _582
REMARK  234  A    between atoms: _581  and  _584
REMARK  235  A    between atoms: _584  and  _585
REMARK                            x       y       z     vdW  Elec       q    Type
REMARK                         _______ _______ _______ _____ _____    ______ ____
ROOT
ATOM      1  CB  PHE A   1      10.833  -0.576  25.410  0.00  0.00    +0.051 C 
ENDROOT
BRANCH   1   2
ATOM      2  CG  PHE A   1      10.081  -0.674  26.709  0.00  0.00    -0.020 A 
ATOM      3  CD2 PHE A   1      10.069   0.394  27.598  0.00  0.00    -0.004 A 
ATOM      4  CE2 PHE A   1       9.373   0.317  28.797  0.00  0.00    -0.000 A 
ATOM      5  CZ  PHE A   1       8.662  -0.829  29.113  0.00  0.00    -0.000 A 
ATOM      6  CE1 PHE A   1       8.667  -1.905  28.231  0.00  0.00    -0.000 A 
ATOM      7  CD1 PHE A   1       9.368  -1.816  27.033  0.00  0.00    -0.004 A 
ENDBRANCH   1   2
BRANCH   1   8
ATOM      8  CA  PHE A   1      10.101   0.219  24.322  0.00  0.00    +0.137 C 
BRANCH   8   9
ATOM      9  N   PHE A   1      10.955   0.417  23.153  0.00  0.00    -0.239 NA
ATOM     10  H   PHE A   1      11.920   0.775  23.303  0.00  0.00    +0.142 HD
ENDBRANCH   8   9
BRANCH   8  11
ATOM     11  C   PHE A   1       9.963   1.680  24.745  0.00  0.00    +0.224 C 
ATOM     12  O   PHE A   1      10.926   2.274  25.237  0.00  0.00    -0.287 OA
ENDBRANCH   8  11
ENDBRANCH   1   8
TORSDOF 4
REMARK  Name = ../refined-set-2016/1z71/1z71_pocket.pdb
REMARK  235 active torsions:
REMARK  status: ('A' for Active; 'I' for Inactive)
REMARK    1  A    between atoms: _1  and  _5
REMARK    2  A    between atoms: _5  and  _6
REMARK    3  A    between atoms: _5  and  _8
REMARK    4  A    between atoms: _8  and  _9
REMARK    5  A    between atoms: _12  and  _14
REMARK    6  A    between atoms: _14  and  _15
REMARK    7  A    between atoms: _14  and  _17
REMARK    8  A    between atoms: _20  and  _22
REMARK    9  A    between atoms: _22  and  _23
REMARK   10  A    between atoms: _22  and  _25
REMARK   11  A    between atoms: _25  and  _26
REMARK   12  A    between atoms: _26  and  _61
REMARK   13  A    between atoms: _27  and  _29
REMARK   14  A    between atoms: _29  and  _30
REMARK   15  A    between atoms: _32  and  _34
REMARK   16  A    between atoms: _34  and  _35
REMARK   17  A    between atoms: _38  and  _40
REMARK   18  A    between atoms: _40  and  _41
REMARK   19  A    between atoms: _44  and  _46
REMARK   20  A    between atoms: _46  and  _47
REMARK   21  A    between atoms: _46  and  _49
REMARK   22  A    between atoms: _49  and  _50
REMARK   23  A    between atoms: _55  and  _57
REMARK   24  A    between atoms: _57  and  _58
REMARK   25  A    between atoms: _57  and  _60
REMARK   26  A    between atoms: _60  and  _61
REMARK   27  A    between atoms: _62  and  _64
REMARK   28  A    between atoms: _64  and  _65
REMARK   29  A    between atoms: _64  and  _67
REMARK   30  A    between atoms: _67  and  _68
REMARK   31  A    between atoms: _71  and  _73
REMARK   32  A    between atoms: _73  and  _74
REMARK   33  A    between atoms: _73  and  _76
REMARK   34  A    between atoms: _76  and  _77
REMARK   35  A    between atoms: _82  and  _83
REMARK   36  A    between atoms: _86  and  _87
REMARK   37  A    between atoms: _92  and  _94
REMARK   38  A    between atoms: _94  and  _95
REMARK   39  A    between atoms: _94  and  _97
REMARK   40  A    between atoms: _97  and  _98
REMARK   41  A    between atoms: _108  and  _110
REMARK   42  A    between atoms: _110  and  _111
REMARK   43  A    between atoms: _110  and  _113
REMARK   44  A    between atoms: _113  and  _114
REMARK   45  A    between atoms: _114  and  _115
REMARK   46  A    between atoms: _115  and  _116
REMARK   47  A    between atoms: _116  and  _117
REMARK   48  A    between atoms: _121  and  _123
REMARK   49  A    between atoms: _123  and  _124
REMARK   50  A    between atoms: _123  and  _126
REMARK   51  A    between atoms: _126  and  _127
REMARK   52  A    between atoms: _132  and  _133
REMARK   53  A    between atoms: _135  and  _137
REMARK   54  A    between atoms: _137  and  _138
REMARK   55  A    between atoms: _137  and  _140
REMARK   56  A    between atoms: _140  and  _141
REMARK   57  A    between atoms: _146  and  _148
REMARK   58  A    between atoms: _148  and  _149
REMARK   59  A    between atoms: _148  and  _151
REMARK   60  A    between atoms: _151  and  _152
REMARK   61  A    between atoms: _162  and  _164
REMARK   62  A    between atoms: _164  and  _165
REMARK   63  A    between atoms: _164  and  _167
REMARK   64  A    between atoms: _167  and  _168
REMARK   65  A    between atoms: _168  and  _169
REMARK   66  A    between atoms: _169  and  _170
REMARK   67  A    between atoms: _179  and  _181
REMARK   68  A    between atoms: _181  and  _182
REMARK   69  A    between atoms: _181  and  _184
REMARK   70  A    between atoms: _184  and  _185
REMARK   71  A    between atoms: _185  and  _186
REMARK   72  A    between atoms: _189  and  _191
REMARK   73  A    between atoms: _191  and  _192
REMARK   74  A    between atoms: _191  and  _194
REMARK   75  A    between atoms: _194  and  _195
REMARK   76  A    between atoms: _200  and  _202
REMARK   77  A    between atoms: _202  and  _203
REMARK   78  A    between atoms: _202  and  _205
REMARK   79  A    between atoms: _205  and  _206
REMARK   80  A    between atoms: _209  and  _211
REMARK   81  A    between atoms: _211  and  _212
REMARK   82  A    between atoms: _211  and  _214
REMARK   83  A    between atoms: _214  and  _215
REMARK   84  A    between atoms: _218  and  _220
REMARK   85  A    between atoms: _220  and  _221
REMARK   86  A    between atoms: _220  and  _223
REMARK   87  A    between atoms: _223  and  _224
REMARK   88  A    between atoms: _227  and  _229
REMARK   89  A    between atoms: _229  and  _230
REMARK   90  A    between atoms: _229  and  _232
REMARK   91  A    between atoms: _235  and  _237
REMARK   92  A    between atoms: _237  and  _238
REMARK   93  A    between atoms: _240  and  _242
REMARK   94  A    between atoms: _242  and  _243
REMARK   95  A    between atoms: _242  and  _245
REMARK   96  A    between atoms: _245  and  _246
REMARK   97  A    between atoms: _251  and  _253
REMARK   98  A    between atoms: _253  and  _254
REMARK   99  A    between atoms: _253  and  _256
REMARK  100  A    between atoms: _256  and  _257
REMARK  101  A    between atoms: _260  and  _262
REMARK  102  A    between atoms: _262  and  _263
REMARK  103  A    between atoms: _262  and  _265
REMARK  104  A    between atoms: _265  and  _266
REMARK  105  A    between atoms: _269  and  _271
REMARK  106  A    between atoms: _271  and  _272
REMARK  107  A    between atoms: _271  and  _274
REMARK  108  A    between atoms: _274  and  _275
REMARK  109  A    between atoms: _275  and  _276
REMARK  110  A    between atoms: _276  and  _277
REMARK  111  A    between atoms: _286  and  _288
REMARK  112  A    between atoms: _288  and  _289
REMARK  113  A    between atoms: _288  and  _291
REMARK  114  A    between atoms: _291  and  _292
REMARK  115  A    between atoms: _295  and  _297
REMARK  116  A    between atoms: _297  and  _298
REMARK  117  A    between atoms: _297  and  _300
REMARK  118  A    between atoms: _300  and  _301
REMARK  119  A    between atoms: _301  and  _302
REMARK  120  A    between atoms: _302  and  _303
REMARK  121  A    between atoms: _312  and  _314
REMARK  122  A    between atoms: _314  and  _315
REMARK  123  A    between atoms: _314  and  _317
REMARK  124  A    between atoms: _317  and  _318
REMARK  125  A    between atoms: _318  and  _319
REMARK  126  A    between atoms: _321  and  _323
REMARK  127  A    between atoms: _323  and  _324
REMARK  128  A    between atoms: _323  and  _326
REMARK  129  A    between atoms: _326  and  _327
REMARK  130  A    between atoms: _333  and  _335
REMARK  131  A    between atoms: _335  and  _336
REMARK  132  A    between atoms: _335  and  _338
REMARK  133  A    between atoms: _340  and  _342
REMARK  134  A    between atoms: _342  and  _343
REMARK  135  A    between atoms: _346  and  _348
REMARK  136  A    between atoms: _348  and  _349
REMARK  137  A    between atoms: _351  and  _353
REMARK  138  A    between atoms: _353  and  _354
REMARK  139  A    between atoms: _353  and  _356
REMARK  140  A    between atoms: _356  and  _357
REMARK  141  A    between atoms: _360  and  _362
REMARK  142  A    between atoms: _362  and  _363
REMARK  143  A    between atoms: _366  and  _368
REMARK  144  A    between atoms: _368  and  _369
REMARK  145  A    between atoms: _368  and  _371
REMARK  146  A    between atoms: _371  and  _372
REMARK  147  A    between atoms: _372  and  _494
REMARK  148  A    between atoms: _373  and  _375
REMARK  149  A    between atoms: _375  and  _376
REMARK  150  A    between atoms: _375  and  _378
REMARK  151  A    between atoms: _378  and  _379
REMARK  152  A    between atoms: _379  and  _380
REMARK  153  A    between atoms: _383  and  _385
REMARK  154  A    between atoms: _385  and  _386
REMARK  155  A    between atoms: _388  and  _390
REMARK  156  A    between atoms: _390  and  _391
REMARK  157  A    between atoms: _390  and  _393
REMARK  158  A    between atoms: _393  and  _394
REMARK  159  A    between atoms: _397  and  _399
REMARK  160  A    between atoms: _399  and  _400
REMARK  161  A    between atoms: _399  and  _402
REMARK  162  A    between atoms: _402  and  _403
REMARK  163  A    between atoms: _405  and  _407
REMARK  164  A    between atoms: _407  and  _408
REMARK  165  A    between atoms: _410  and  _412
REMARK  166  A    between atoms: _412  and  _413
REMARK  167  A    between atoms: _415  and  _417
REMARK  168  A    between atoms: _417  and  _418
REMARK  169  A    between atoms: _417  and  _420
REMARK  170  A    between atoms: _420  and  _421
REMARK  171  A    between atoms: _427  and  _429
REMARK  172  A    between atoms: _429  and  _430
REMARK  173  A    between atoms: _429  and  _432
REMARK  174  A    between atoms: _432  and  _433
REMARK  175  A    between atoms: _436  and  _438
REMARK  176  A    between atoms: _438  and  _439
REMARK  177  A    between atoms: _438  and  _441
REMARK  178  A    between atoms: _444  and  _446
REMARK  179  A    between atoms: _446  and  _447
REMARK  180  A    between atoms: _446  and  _449
REMARK  181  A    between atoms: _449  and  _450
REMARK  182  A    between atoms: _452  and  _454
REMARK  183  A    between atoms: _454  and  _455
REMARK  184  A    between atoms: _454  and  _457
REMARK  185  A    between atoms: _457  and  _458
REMARK  186  A    between atoms: _468  and  _470
REMARK  187  A    between atoms: _470  and  _471
REMARK  188  A    between atoms: _473  and  _475
REMARK  189  A    between atoms: _475  and  _476
REMARK  190  A    between atoms: _475  and  _478
REMARK  191  A    between atoms: _478  and  _479
REMARK  192  A    between atoms: _479  and  _480
REMARK  193  A    between atoms: _483  and  _485
REMARK  194  A    between atoms: _485  and  _486
REMARK  195  A    between atoms: _488  and  _490
REMARK  196  A    between atoms: _490  and  _491
REMARK  197  A    between atoms: _490  and  _493
REMARK  198  A    between atoms: _493  and  _494
REMARK  199  A    between atoms: _495  and  _497
REMARK  200  A    between atoms: _497  and  _498
REMARK  201  A    between atoms: _497  and  _500
REMARK  202  A    between atoms: _500  and  _501
REMARK  203  A    between atoms: _504  and  _506
REMARK  204  A    between atoms: _506  and  _507
REMARK  205  A    between atoms: _506  and  _509
REMARK  206  A    between atoms: _509  and  _510
REMARK  207  A    between atoms: _510  and  _511
REMARK  208  A    between atoms: _511  and  _512
REMARK  209  A    between atoms: _521  and  _523
REMARK  210  A    between atoms: _523  and  _524
REMARK  211  A    between atoms: _523  and  _526
REMARK  212  A    between atoms: _526  and  _527
REMARK  213  A    between atoms: _527  and  _528
REMARK  214  A    between atoms: _528  and  _529
REMARK  215  A    between atoms: _529  and  _530
REMARK  216  A    between atoms: _534  and  _536
REMARK  217  A    between atoms: _536  and  _537
REMARK  218  A    between atoms: _536  and  _539
REMARK  219  A    between atoms: _539  and  _540
REMARK  220  A    between atoms: _545  and  _546
REMARK  221  A    between atoms: _548  and  _550
REMARK  222  A    between atoms: _550  and  _551
REMARK  223  A    between atoms: _553  and  _555
REMARK  224  A    between atoms: _555  and  _556
REMARK  225  A    between atoms: _555  and  _558
REMARK  226  A    between atoms: _558  and  _559
REMARK  227  A    between atoms: _565  and  _567
REMARK  228  A    between atoms: _567  and  _568
REMARK  229  A    between atoms: _567  and  _570
REMARK  230  A    between atoms: _570  and  _571
REMARK  231  A    between atoms: _576  and  _577
REMARK  232  A    between atoms: _579  and  _581
REMARK  233  A    between atoms: _581  and  _582
REMARK  234  A    between atoms: _581  and  _584
REMARK  235  A    between atoms: _584  and  _585
REMARK                            x       y       z     vdW  Elec       q    Type
REMARK                         _______ _______ _______ _____ _____    ______ ____
ROOT
ATOM      1  C   GLY A   3      12.298  -8.965  28.337  0.00  0.00    +0.243 C 
ATOM      2  O   GLY A   3      12.009  -8.270  29.311  0.00  0.00    -0.273 OA
ATOM      3  N   PHE A   4      13.507  -8.968  27.788  0.00  0.00    -0.297 N 
ATOM      4  H   PHE A   4      13.701  -9.587  26.975  0.00  0.00    +0.150 HD
ENDROOT
BRANCH   3   5
ATOM      5  CA  PHE A   4      14.566  -8.112  28.312  0.00  0.00    +0.153 C 
BRANCH   5   6
ATOM      6  C   PHE A   4      14.905  -7.033  27.307  0.00  0.00    +0.241 C 
ATOM      7  N   TYR A   5      15.058  -5.815  27.818  0.00  0.00    -0.297 N 
ATOM      8  H   TYR A   5      14.990  -5.691  28.848  0.00  0.00    +0.150 HD
ATOM      9  O   PHE A   4      15.038  -7.297  26.111  0.00  0.00    -0.273 OA
BRANCH   7  10
ATOM     10  CA  TYR A   5      15.315  -4.656  26.992  0.00  0.00    +0.153 C 
BRANCH  10  11
ATOM     11  C   TYR A   5      16.592  -3.930  27.351  0.00  0.00    +0.241 C 
ATOM     12  O   TYR A   5      16.959  -3.834  28.522  0.00  0.00    -0.273 OA
ATOM     13  N   THR A   6      17.265  -3.414  26.330  0.00  0.00    -0.296 N 
ATOM     14  H   THR A   6      16.915  -3.557  25.361  0.00  0.00    +0.150 HD
BRANCH  13  15
ATOM     15  CA  THR A   6      18.483  -2.653  26.545  0.00  0.00    +0.164 C 
BRANCH  15  16
ATOM     16  CB  THR A   6      19.159  -2.323  25.207  0.00  0.00    +0.136 C 
ATOM     17  CG2 THR A   6      20.537  -1.694  25.437  0.00  0.00    +0.034 C 
BRANCH  16  18
ATOM     18  OG1 THR A   6      19.307  -3.528  24.446  0.00  0.00    -0.382 OA
ATOM     19  HG1 THR A   6      19.743  -3.320  23.582  0.00  0.00    +0.210 HD
ENDBRANCH  16  18
ENDBRANCH  15  16
BRANCH  15  20
ATOM     20  C   THR A   6      18.077  -1.359  27.246  0.00  0.00    +0.229 C 
ATOM     21  O   THR A   6      17.153  -0.673  26.801  0.00  0.00    -0.286 OA
ENDBRANCH  15  20
ENDBRANCH  13  15
ENDBRANCH  10  11
BRANCH  10  22
ATOM     22  CB  TYR A   5      14.140  -3.683  27.118  0.00  0.00    +0.055 C 
BRANCH  22  23
ATOM     23  CG  TYR A   5      12.807  -4.300  26.771  0.00  0.00    -0.020 A 
ATOM     24  CD2 TYR A   5      12.159  -5.161  27.653  0.00  0.00    -0.001 A 
ATOM     25  CE2 TYR A   5      10.984  -5.800  27.294  0.00  0.00    +0.036 A 
ATOM     26  CZ  TYR A   5      10.444  -5.575  26.049  0.00  0.00    +0.134 A 
ATOM     27  CE1 TYR A   5      11.060  -4.718  25.162  0.00  0.00    +0.036 A 
ATOM     28  CD1 TYR A   5      12.232  -4.087  25.524  0.00  0.00    -0.001 A 
BRANCH  26  29
ATOM     29  OH  TYR A   5       9.293  -6.227  25.672  0.00  0.00    -0.506 OA
ATOM     30  HH  TYR A   5       8.980  -6.799  26.417  0.00  0.00    +0.292 HD
ENDBRANCH  26  29
ENDBRANCH  22  23
ENDBRANCH  10  22
ENDBRANCH   7  10
ENDBRANCH   5   6
BRANCH   5  31
ATOM     31  CB  PHE A   4      15.801  -8.941  28.678  0.00  0.00    +0.055 C 
BRANCH  31  32
ATOM     32  CG  PHE A   4      15.652  -9.700  29.966  0.00  0.00    -0.020 A 
ATOM     33  CD2 PHE A   4      16.255  -9.241  31.125  0.00  0.00    -0.004 A 
ATOM     34  CE2 PHE A   4      16.084  -9.907  32.326  0.00  0.00    -0.000 A 
ATOM     35  CZ  PHE A   4      15.287 -11.028  32.380  0.00  0.00    -0.000 A 
ATOM     36  CE1 PHE A   4      14.676 -11.499  31.226  0.00  0.00    -0.000 A 
ATOM     37  CD1 PHE A   4      14.853 -10.829  30.032  0.00  0.00    -0.004 A 
ENDBRANCH  31  32
ENDBRANCH   5  31
ENDBRANCH   3   5
BRANCH   1  38
ATOM     38  CA  GLY A   3      11.265  -9.880  27.713  0.00  0.00    +0.176 C 
BRANCH  38  41
ATOM     39  C   TYR A   2      10.805 -11.412  29.496  0.00  0.00    +0.241 C 
ATOM     40  O   TYR A   2      11.871 -11.995  29.316  0.00  0.00    -0.273 OA
ATOM     41  N   GLY A   3      10.410 -10.382  28.763  0.00  0.00    -0.295 N 
ATOM     42  H   GLY A   3       9.488  -9.936  28.943  0.00  0.00    +0.150 HD
BRANCH  39  43
ATOM     43  CA  TYR A   2       9.858 -11.845  30.595  0.00  0.00    +0.153 C 
BRANCH  43  46
ATOM     44  C   LYS A   1       8.957 -14.019  31.145  0.00  0.00    +0.238 C 
ATOM     45  O   LYS A   1       7.811 -13.585  31.128  0.00  0.00    -0.274 OA
ATOM     46  N   TYR A   2      10.015 -13.261  30.889  0.00  0.00    -0.297 N 
ATOM     47  H   TYR A   2      10.966 -13.683  30.899  0.00  0.00    +0.150 HD
BRANCH  44  48
ATOM     48  CA  LYS A   1       9.223 -15.485  31.459  0.00  0.00    +0.145 C 
BRANCH  48  49
ATOM     49  N   LYS A   1       8.091 -16.026  32.196  0.00  0.00    -0.238 NA
ATOM     50  H   LYS A   1       7.180 -16.151  31.710  0.00  0.00    +0.142 HD
ENDBRANCH  48  49
BRANCH  48  51
ATOM     51  CB  LYS A   1       9.435 -16.268  30.163  0.00  0.00    +0.026 C 
BRANCH  51  52
ATOM     52  CG  LYS A   1       9.937 -17.694  30.381  0.00  0.00    -0.000 C 
BRANCH  52  53
ATOM     53  CD  LYS A   1      11.367 -17.683  30.906  0.00  0.00    -0.024 C 
BRANCH  53  54
ATOM     54  CE  LYS A   1      11.924 -19.085  31.074  0.00  0.00    -0.086 C 
BRANCH  54  55
ATOM     55  NZ  LYS A   1      13.373 -19.044  31.438  0.00  0.00    +0.380 N 
ATOM     56  HZ1 LYS A   1      13.490 -18.528  32.333  0.00  0.00    -0.089 HD
ATOM     57  HZ2 LYS A   1      13.729 -20.015  31.547  0.00  0.00    -0.089 HD
ATOM     58  HZ3 LYS A   1      13.905 -18.561  30.686  0.00  0.00    -0.089 HD
ENDBRANCH  54  55
ENDBRANCH  53  54
ENDBRANCH  52  53
ENDBRANCH  51  52
ENDBRANCH  48  51
ENDBRANCH  44  48
ENDBRANCH  43  46
BRANCH  43  59
ATOM     59  CB  TYR A   2      10.133 -11.003  31.849  0.00  0.00    +0.055 C 
BRANCH  59  60
ATOM     60  CG  TYR A   2       9.270 -11.386  33.025  0.00  0.00    -0.020 A 
ATOM     61  CD2 TYR A   2       9.656 -12.402  33.893  0.00  0.00    -0.001 A 
ATOM     62  CE2 TYR A   2       8.835 -12.802  34.932  0.00  0.00    +0.036 A 
ATOM     63  CZ  TYR A   2       7.615 -12.185  35.114  0.00  0.00    +0.134 A 
ATOM     64  CE1 TYR A   2       7.213 -11.174  34.270  0.00  0.00    +0.036 A 
ATOM     65  CD1 TYR A   2       8.040 -10.778  33.233  0.00  0.00    -0.001 A 
BRANCH  63  66
ATOM     66  OH  TYR A   2       6.782 -12.585  36.136  0.00  0.00    -0.506 OA
ATOM     67  HH  TYR A   2       7.215 -13.315  36.646  0.00  0.00    +0.292 HD
ENDBRANCH  63  66
ENDBRANCH  59  60
ENDBRANCH  43  59
ENDBRANCH  39  43
ENDBRANCH  38  41
ENDBRANCH   1  38
TORSDOF 27
REMARK  Name = ../refined-set-2016/1z71/1z71_pocket.pdb
REMARK  235 active torsions:
REMARK  status: ('A' for Active; 'I' for Inactive)
REMARK    1  A    between atoms: _1  and  _5
REMARK    2  A    between atoms: _5  and  _6
REMARK    3  A    between atoms: _5  and  _8
REMARK    4  A    between atoms: _8  and  _9
REMARK    5  A    between atoms: _12  and  _14
REMARK    6  A    between atoms: _14  and  _15
REMARK    7  A    between atoms: _14  and  _17
REMARK    8  A    between atoms: _20  and  _22
REMARK    9  A    between atoms: _22  and  _23
REMARK   10  A    between atoms: _22  and  _25
REMARK   11  A    between atoms: _25  and  _26
REMARK   12  A    between atoms: _26  and  _61
REMARK   13  A    between atoms: _27  and  _29
REMARK   14  A    between atoms: _29  and  _30
REMARK   15  A    between atoms: _32  and  _34
REMARK   16  A    between atoms: _34  and  _35
REMARK   17  A    between atoms: _38  and  _40
REMARK   18  A    between atoms: _40  and  _41
REMARK   19  A    between atoms: _44  and  _46
REMARK   20  A    between atoms: _46  and  _47
REMARK   21  A    between atoms: _46  and  _49
REMARK   22  A    between atoms: _49  and  _50
REMARK   23  A    between atoms: _55  and  _57
REMARK   24  A    between atoms: _57  and  _58
REMARK   25  A    between atoms: _57  and  _60
REMARK   26  A    between atoms: _60  and  _61
REMARK   27  A    between atoms: _62  and  _64
REMARK   28  A    between atoms: _64  and  _65
REMARK   29  A    between atoms: _64  and  _67
REMARK   30  A    between atoms: _67  and  _68
REMARK   31  A    between atoms: _71  and  _73
REMARK   32  A    between atoms: _73  and  _74
REMARK   33  A    between atoms: _73  and  _76
REMARK   34  A    between atoms: _76  and  _77
REMARK   35  A    between atoms: _82  and  _83
REMARK   36  A    between atoms: _86  and  _87
REMARK   37  A    between atoms: _92  and  _94
REMARK   38  A    between atoms: _94  and  _95
REMARK   39  A    between atoms: _94  and  _97
REMARK   40  A    between atoms: _97  and  _98
REMARK   41  A    between atoms: _108  and  _110
REMARK   42  A    between atoms: _110  and  _111
REMARK   43  A    between atoms: _110  and  _113
REMARK   44  A    between atoms: _113  and  _114
REMARK   45  A    between atoms: _114  and  _115
REMARK   46  A    between atoms: _115  and  _116
REMARK   47  A    between atoms: _116  and  _117
REMARK   48  A    between atoms: _121  and  _123
REMARK   49  A    between atoms: _123  and  _124
REMARK   50  A    between atoms: _123  and  _126
REMARK   51  A    between atoms: _126  and  _127
REMARK   52  A    between atoms: _132  and  _133
REMARK   53  A    between atoms: _135  and  _137
REMARK   54  A    between atoms: _137  and  _138
REMARK   55  A    between atoms: _137  and  _140
REMARK   56  A    between atoms: _140  and  _141
REMARK   57  A    between atoms: _146  and  _148
REMARK   58  A    between atoms: _148  and  _149
REMARK   59  A    between atoms: _148  and  _151
REMARK   60  A    between atoms: _151  and  _152
REMARK   61  A    between atoms: _162  and  _164
REMARK   62  A    between atoms: _164  and  _165
REMARK   63  A    between atoms: _164  and  _167
REMARK   64  A    between atoms: _167  and  _168
REMARK   65  A    between atoms: _168  and  _169
REMARK   66  A    between atoms: _169  and  _170
REMARK   67  A    between atoms: _179  and  _181
REMARK   68  A    between atoms: _181  and  _182
REMARK   69  A    between atoms: _181  and  _184
REMARK   70  A    between atoms: _184  and  _185
REMARK   71  A    between atoms: _185  and  _186
REMARK   72  A    between atoms: _189  and  _191
REMARK   73  A    between atoms: _191  and  _192
REMARK   74  A    between atoms: _191  and  _194
REMARK   75  A    between atoms: _194  and  _195
REMARK   76  A    between atoms: _200  and  _202
REMARK   77  A    between atoms: _202  and  _203
REMARK   78  A    between atoms: _202  and  _205
REMARK   79  A    between atoms: _205  and  _206
REMARK   80  A    between atoms: _209  and  _211
REMARK   81  A    between atoms: _211  and  _212
REMARK   82  A    between atoms: _211  and  _214
REMARK   83  A    between atoms: _214  and  _215
REMARK   84  A    between atoms: _218  and  _220
REMARK   85  A    between atoms: _220  and  _221
REMARK   86  A    between atoms: _220  and  _223
REMARK   87  A    between atoms: _223  and  _224
REMARK   88  A    between atoms: _227  and  _229
REMARK   89  A    between atoms: _229  and  _230
REMARK   90  A    between atoms: _229  and  _232
REMARK   91  A    between atoms: _235  and  _237
REMARK   92  A    between atoms: _237  and  _238
REMARK   93  A    between atoms: _240  and  _242
REMARK   94  A    between atoms: _242  and  _243
REMARK   95  A    between atoms: _242  and  _245
REMARK   96  A    between atoms: _245  and  _246
REMARK   97  A    between atoms: _251  and  _253
REMARK   98  A    between atoms: _253  and  _254
REMARK   99  A    between atoms: _253  and  _256
REMARK  100  A    between atoms: _256  and  _257
REMARK  101  A    between atoms: _260  and  _262
REMARK  102  A    between atoms: _262  and  _263
REMARK  103  A    between atoms: _262  and  _265
REMARK  104  A    between atoms: _265  and  _266
REMARK  105  A    between atoms: _269  and  _271
REMARK  106  A    between atoms: _271  and  _272
REMARK  107  A    between atoms: _271  and  _274
REMARK  108  A    between atoms: _274  and  _275
REMARK  109  A    between atoms: _275  and  _276
REMARK  110  A    between atoms: _276  and  _277
REMARK  111  A    between atoms: _286  and  _288
REMARK  112  A    between atoms: _288  and  _289
REMARK  113  A    between atoms: _288  and  _291
REMARK  114  A    between atoms: _291  and  _292
REMARK  115  A    between atoms: _295  and  _297
REMARK  116  A    between atoms: _297  and  _298
REMARK  117  A    between atoms: _297  and  _300
REMARK  118  A    between atoms: _300  and  _301
REMARK  119  A    between atoms: _301  and  _302
REMARK  120  A    between atoms: _302  and  _303
REMARK  121  A    between atoms: _312  and  _314
REMARK  122  A    between atoms: _314  and  _315
REMARK  123  A    between atoms: _314  and  _317
REMARK  124  A    between atoms: _317  and  _318
REMARK  125  A    between atoms: _318  and  _319
REMARK  126  A    between atoms: _321  and  _323
REMARK  127  A    between atoms: _323  and  _324
REMARK  128  A    between atoms: _323  and  _326
REMARK  129  A    between atoms: _326  and  _327
REMARK  130  A    between atoms: _333  and  _335
REMARK  131  A    between atoms: _335  and  _336
REMARK  132  A    between atoms: _335  and  _338
REMARK  133  A    between atoms: _340  and  _342
REMARK  134  A    between atoms: _342  and  _343
REMARK  135  A    between atoms: _346  and  _348
REMARK  136  A    between atoms: _348  and  _349
REMARK  137  A    between atoms: _351  and  _353
REMARK  138  A    between atoms: _353  and  _354
REMARK  139  A    between atoms: _353  and  _356
REMARK  140  A    between atoms: _356  and  _357
REMARK  141  A    between atoms: _360  and  _362
REMARK  142  A    between atoms: _362  and  _363
REMARK  143  A    between atoms: _366  and  _368
REMARK  144  A    between atoms: _368  and  _369
REMARK  145  A    between atoms: _368  and  _371
REMARK  146  A    between atoms: _371  and  _372
REMARK  147  A    between atoms: _372  and  _494
REMARK  148  A    between atoms: _373  and  _375
REMARK  149  A    between atoms: _375  and  _376
REMARK  150  A    between atoms: _375  and  _378
REMARK  151  A    between atoms: _378  and  _379
REMARK  152  A    between atoms: _379  and  _380
REMARK  153  A    between atoms: _383  and  _385
REMARK  154  A    between atoms: _385  and  _386
REMARK  155  A    between atoms: _388  and  _390
REMARK  156  A    between atoms: _390  and  _391
REMARK  157  A    between atoms: _390  and  _393
REMARK  158  A    between atoms: _393  and  _394
REMARK  159  A    between atoms: _397  and  _399
REMARK  160  A    between atoms: _399  and  _400
REMARK  161  A    between atoms: _399  and  _402
REMARK  162  A    between atoms: _402  and  _403
REMARK  163  A    between atoms: _405  and  _407
REMARK  164  A    between atoms: _407  and  _408
REMARK  165  A    between atoms: _410  and  _412
REMARK  166  A    between atoms: _412  and  _413
REMARK  167  A    between atoms: _415  and  _417
REMARK  168  A    between atoms: _417  and  _418
REMARK  169  A    between atoms: _417  and  _420
REMARK  170  A    between atoms: _420  and  _421
REMARK  171  A    between atoms: _427  and  _429
REMARK  172  A    between atoms: _429  and  _430
REMARK  173  A    between atoms: _429  and  _432
REMARK  174  A    between atoms: _432  and  _433
REMARK  175  A    between atoms: _436  and  _438
REMARK  176  A    between atoms: _438  and  _439
REMARK  177  A    between atoms: _438  and  _441
REMARK  178  A    between atoms: _444  and  _446
REMARK  179  A    between atoms: _446  and  _447
REMARK  180  A    between atoms: _446  and  _449
REMARK  181  A    between atoms: _449  and  _450
REMARK  182  A    between atoms: _452  and  _454
REMARK  183  A    between atoms: _454  and  _455
REMARK  184  A    between atoms: _454  and  _457
REMARK  185  A    between atoms: _457  and  _458
REMARK  186  A    between atoms: _468  and  _470
REMARK  187  A    between atoms: _470  and  _471
REMARK  188  A    between atoms: _473  and  _475
REMARK  189  A    between atoms: _475  and  _476
REMARK  190  A    between atoms: _475  and  _478
REMARK  191  A    between atoms: _478  and  _479
REMARK  192  A    between atoms: _479  and  _480
REMARK  193  A    between atoms: _483  and  _485
REMARK  194  A    between atoms: _485  and  _486
REMARK  195  A    between atoms: _488  and  _490
REMARK  196  A    between atoms: _490  and  _491
REMARK  197  A    between atoms: _490  and  _493
REMARK  198  A    between atoms: _493  and  _494
REMARK  199  A    between atoms: _495  and  _497
REMARK  200  A    between atoms: _497  and  _498
REMARK  201  A    between atoms: _497  and  _500
REMARK  202  A    between atoms: _500  and  _501
REMARK  203  A    between atoms: _504  and  _506
REMARK  204  A    between atoms: _506  and  _507
REMARK  205  A    between atoms: _506  and  _509
REMARK  206  A    between atoms: _509  and  _510
REMARK  207  A    between atoms: _510  and  _511
REMARK  208  A    between atoms: _511  and  _512
REMARK  209  A    between atoms: _521  and  _523
REMARK  210  A    between atoms: _523  and  _524
REMARK  211  A    between atoms: _523  and  _526
REMARK  212  A    between atoms: _526  and  _527
REMARK  213  A    between atoms: _527  and  _528
REMARK  214  A    between atoms: _528  and  _529
REMARK  215  A    between atoms: _529  and  _530
REMARK  216  A    between atoms: _534  and  _536
REMARK  217  A    between atoms: _536  and  _537
REMARK  218  A    between atoms: _536  and  _539
REMARK  219  A    between atoms: _539  and  _540
REMARK  220  A    between atoms: _545  and  _546
REMARK  221  A    between atoms: _548  and  _550
REMARK  222  A    between atoms: _550  and  _551
REMARK  223  A    between atoms: _553  and  _555
REMARK  224  A    between atoms: _555  and  _556
REMARK  225  A    between atoms: _555  and  _558
REMARK  226  A    between atoms: _558  and  _559
REMARK  227  A    between atoms: _565  and  _567
REMARK  228  A    between atoms: _567  and  _568
REMARK  229  A    between atoms: _567  and  _570
REMARK  230  A    between atoms: _570  and  _571
REMARK  231  A    between atoms: _576  and  _577
REMARK  232  A    between atoms: _579  and  _581
REMARK  233  A    between atoms: _581  and  _582
REMARK  234  A    between atoms: _581  and  _584
REMARK  235  A    between atoms: _584  and  _585
REMARK                            x       y       z     vdW  Elec       q    Type
REMARK                         _______ _______ _______ _____ _____    ______ ____
ROOT
ATOM      1  O   HOH     1       6.537 -10.642  28.363  0.00  0.00    +0.000 OA
ENDROOT
TORSDOF 0
REMARK  Name = ../refined-set-2016/1z71/1z71_pocket.pdb
REMARK  235 active torsions:
REMARK  status: ('A' for Active; 'I' for Inactive)
REMARK    1  A    between atoms: _1  and  _5
REMARK    2  A    between atoms: _5  and  _6
REMARK    3  A    between atoms: _5  and  _8
REMARK    4  A    between atoms: _8  and  _9
REMARK    5  A    between atoms: _12  and  _14
REMARK    6  A    between atoms: _14  and  _15
REMARK    7  A    between atoms: _14  and  _17
REMARK    8  A    between atoms: _20  and  _22
REMARK    9  A    between atoms: _22  and  _23
REMARK   10  A    between atoms: _22  and  _25
REMARK   11  A    between atoms: _25  and  _26
REMARK   12  A    between atoms: _26  and  _61
REMARK   13  A    between atoms: _27  and  _29
REMARK   14  A    between atoms: _29  and  _30
REMARK   15  A    between atoms: _32  and  _34
REMARK   16  A    between atoms: _34  and  _35
REMARK   17  A    between atoms: _38  and  _40
REMARK   18  A    between atoms: _40  and  _41
REMARK   19  A    between atoms: _44  and  _46
REMARK   20  A    between atoms: _46  and  _47
REMARK   21  A    between atoms: _46  and  _49
REMARK   22  A    between atoms: _49  and  _50
REMARK   23  A    between atoms: _55  and  _57
REMARK   24  A    between atoms: _57  and  _58
REMARK   25  A    between atoms: _57  and  _60
REMARK   26  A    between atoms: _60  and  _61
REMARK   27  A    between atoms: _62  and  _64
REMARK   28  A    between atoms: _64  and  _65
REMARK   29  A    between atoms: _64  and  _67
REMARK   30  A    between atoms: _67  and  _68
REMARK   31  A    between atoms: _71  and  _73
REMARK   32  A    between atoms: _73  and  _74
REMARK   33  A    between atoms: _73  and  _76
REMARK   34  A    between atoms: _76  and  _77
REMARK   35  A    between atoms: _82  and  _83
REMARK   36  A    between atoms: _86  and  _87
REMARK   37  A    between atoms: _92  and  _94
REMARK   38  A    between atoms: _94  and  _95
REMARK   39  A    between atoms: _94  and  _97
REMARK   40  A    between atoms: _97  and  _98
REMARK   41  A    between atoms: _108  and  _110
REMARK   42  A    between atoms: _110  and  _111
REMARK   43  A    between atoms: _110  and  _113
REMARK   44  A    between atoms: _113  and  _114
REMARK   45  A    between atoms: _114  and  _115
REMARK   46  A    between atoms: _115  and  _116
REMARK   47  A    between atoms: _116  and  _117
REMARK   48  A    between atoms: _121  and  _123
REMARK   49  A    between atoms: _123  and  _124
REMARK   50  A    between atoms: _123  and  _126
REMARK   51  A    between atoms: _126  and  _127
REMARK   52  A    between atoms: _132  and  _133
REMARK   53  A    between atoms: _135  and  _137
REMARK   54  A    between atoms: _137  and  _138
REMARK   55  A    between atoms: _137  and  _140
REMARK   56  A    between atoms: _140  and  _141
REMARK   57  A    between atoms: _146  and  _148
REMARK   58  A    between atoms: _148  and  _149
REMARK   59  A    between atoms: _148  and  _151
REMARK   60  A    between atoms: _151  and  _152
REMARK   61  A    between atoms: _162  and  _164
REMARK   62  A    between atoms: _164  and  _165
REMARK   63  A    between atoms: _164  and  _167
REMARK   64  A    between atoms: _167  and  _168
REMARK   65  A    between atoms: _168  and  _169
REMARK   66  A    between atoms: _169  and  _170
REMARK   67  A    between atoms: _179  and  _181
REMARK   68  A    between atoms: _181  and  _182
REMARK   69  A    between atoms: _181  and  _184
REMARK   70  A    between atoms: _184  and  _185
REMARK   71  A    between atoms: _185  and  _186
REMARK   72  A    between atoms: _189  and  _191
REMARK   73  A    between atoms: _191  and  _192
REMARK   74  A    between atoms: _191  and  _194
REMARK   75  A    between atoms: _194  and  _195
REMARK   76  A    between atoms: _200  and  _202
REMARK   77  A    between atoms: _202  and  _203
REMARK   78  A    between atoms: _202  and  _205
REMARK   79  A    between atoms: _205  and  _206
REMARK   80  A    between atoms: _209  and  _211
REMARK   81  A    between atoms: _211  and  _212
REMARK   82  A    between atoms: _211  and  _214
REMARK   83  A    between atoms: _214  and  _215
REMARK   84  A    between atoms: _218  and  _220
REMARK   85  A    between atoms: _220  and  _221
REMARK   86  A    between atoms: _220  and  _223
REMARK   87  A    between atoms: _223  and  _224
REMARK   88  A    between atoms: _227  and  _229
REMARK   89  A    between atoms: _229  and  _230
REMARK   90  A    between atoms: _229  and  _232
REMARK   91  A    between atoms: _235  and  _237
REMARK   92  A    between atoms: _237  and  _238
REMARK   93  A    between atoms: _240  and  _242
REMARK   94  A    between atoms: _242  and  _243
REMARK   95  A    between atoms: _242  and  _245
REMARK   96  A    between atoms: _245  and  _246
REMARK   97  A    between atoms: _251  and  _253
REMARK   98  A    between atoms: _253  and  _254
REMARK   99  A    between atoms: _253  and  _256
REMARK  100  A    between atoms: _256  and  _257
REMARK  101  A    between atoms: _260  and  _262
REMARK  102  A    between atoms: _262  and  _263
REMARK  103  A    between atoms: _262  and  _265
REMARK  104  A    between atoms: _265  and  _266
REMARK  105  A    between atoms: _269  and  _271
REMARK  106  A    between atoms: _271  and  _272
REMARK  107  A    between atoms: _271  and  _274
REMARK  108  A    between atoms: _274  and  _275
REMARK  109  A    between atoms: _275  and  _276
REMARK  110  A    between atoms: _276  and  _277
REMARK  111  A    between atoms: _286  and  _288
REMARK  112  A    between atoms: _288  and  _289
REMARK  113  A    between atoms: _288  and  _291
REMARK  114  A    between atoms: _291  and  _292
REMARK  115  A    between atoms: _295  and  _297
REMARK  116  A    between atoms: _297  and  _298
REMARK  117  A    between atoms: _297  and  _300
REMARK  118  A    between atoms: _300  and  _301
REMARK  119  A    between atoms: _301  and  _302
REMARK  120  A    between atoms: _302  and  _303
REMARK  121  A    between atoms: _312  and  _314
REMARK  122  A    between atoms: _314  and  _315
REMARK  123  A    between atoms: _314  and  _317
REMARK  124  A    between atoms: _317  and  _318
REMARK  125  A    between atoms: _318  and  _319
REMARK  126  A    between atoms: _321  and  _323
REMARK  127  A    between atoms: _323  and  _324
REMARK  128  A    between atoms: _323  and  _326
REMARK  129  A    between atoms: _326  and  _327
REMARK  130  A    between atoms: _333  and  _335
REMARK  131  A    between atoms: _335  and  _336
REMARK  132  A    between atoms: _335  and  _338
REMARK  133  A    between atoms: _340  and  _342
REMARK  134  A    between atoms: _342  and  _343
REMARK  135  A    between atoms: _346  and  _348
REMARK  136  A    between atoms: _348  and  _349
REMARK  137  A    between atoms: _351  and  _353
REMARK  138  A    between atoms: _353  and  _354
REMARK  139  A    between atoms: _353  and  _356
REMARK  140  A    between atoms: _356  and  _357
REMARK  141  A    between atoms: _360  and  _362
REMARK  142  A    between atoms: _362  and  _363
REMARK  143  A    between atoms: _366  and  _368
REMARK  144  A    between atoms: _368  and  _369
REMARK  145  A    between atoms: _368  and  _371
REMARK  146  A    between atoms: _371  and  _372
REMARK  147  A    between atoms: _372  and  _494
REMARK  148  A    between atoms: _373  and  _375
REMARK  149  A    between atoms: _375  and  _376
REMARK  150  A    between atoms: _375  and  _378
REMARK  151  A    between atoms: _378  and  _379
REMARK  152  A    between atoms: _379  and  _380
REMARK  153  A    between atoms: _383  and  _385
REMARK  154  A    between atoms: _385  and  _386
REMARK  155  A    between atoms: _388  and  _390
REMARK  156  A    between atoms: _390  and  _391
REMARK  157  A    between atoms: _390  and  _393
REMARK  158  A    between atoms: _393  and  _394
REMARK  159  A    between atoms: _397  and  _399
REMARK  160  A    between atoms: _399  and  _400
REMARK  161  A    between atoms: _399  and  _402
REMARK  162  A    between atoms: _402  and  _403
REMARK  163  A    between atoms: _405  and  _407
REMARK  164  A    between atoms: _407  and  _408
REMARK  165  A    between atoms: _410  and  _412
REMARK  166  A    between atoms: _412  and  _413
REMARK  167  A    between atoms: _415  and  _417
REMARK  168  A    between atoms: _417  and  _418
REMARK  169  A    between atoms: _417  and  _420
REMARK  170  A    between atoms: _420  and  _421
REMARK  171  A    between atoms: _427  and  _429
REMARK  172  A    between atoms: _429  and  _430
REMARK  173  A    between atoms: _429  and  _432
REMARK  174  A    between atoms: _432  and  _433
REMARK  175  A    between atoms: _436  and  _438
REMARK  176  A    between atoms: _438  and  _439
REMARK  177  A    between atoms: _438  and  _441
REMARK  178  A    between atoms: _444  and  _446
REMARK  179  A    between atoms: _446  and  _447
REMARK  180  A    between atoms: _446  and  _449
REMARK  181  A    between atoms: _449  and  _450
REMARK  182  A    between atoms: _452  and  _454
REMARK  183  A    between atoms: _454  and  _455
REMARK  184  A    between atoms: _454  and  _457
REMARK  185  A    between atoms: _457  and  _458
REMARK  186  A    between atoms: _468  and  _470
REMARK  187  A    between atoms: _470  and  _471
REMARK  188  A    between atoms: _473  and  _475
REMARK  189  A    between atoms: _475  and  _476
REMARK  190  A    between atoms: _475  and  _478
REMARK  191  A    between atoms: _478  and  _479
REMARK  192  A    between atoms: _479  and  _480
REMARK  193  A    between atoms: _483  and  _485
REMARK  194  A    between atoms: _485  and  _486
REMARK  195  A    between atoms: _488  and  _490
REMARK  196  A    between atoms: _490  and  _491
REMARK  197  A    between atoms: _490  and  _493
REMARK  198  A    between atoms: _493  and  _494
REMARK  199  A    between atoms: _495  and  _497
REMARK  200  A    between atoms: _497  and  _498
REMARK  201  A    between atoms: _497  and  _500
REMARK  202  A    between atoms: _500  and  _501
REMARK  203  A    between atoms: _504  and  _506
REMARK  204  A    between atoms: _506  and  _507
REMARK  205  A    between atoms: _506  and  _509
REMARK  206  A    between atoms: _509  and  _510
REMARK  207  A    between atoms: _510  and  _511
REMARK  208  A    between atoms: _511  and  _512
REMARK  209  A    between atoms: _521  and  _523
REMARK  210  A    between atoms: _523  and  _524
REMARK  211  A    between atoms: _523  and  _526
REMARK  212  A    between atoms: _526  and  _527
REMARK  213  A    between atoms: _527  and  _528
REMARK  214  A    between atoms: _528  and  _529
REMARK  215  A    between atoms: _529  and  _530
REMARK  216  A    between atoms: _534  and  _536
REMARK  217  A    between atoms: _536  and  _537
REMARK  218  A    between atoms: _536  and  _539
REMARK  219  A    between atoms: _539  and  _540
REMARK  220  A    between atoms: _545  and  _546
REMARK  221  A    between atoms: _548  and  _550
REMARK  222  A    between atoms: _550  and  _551
REMARK  223  A    between atoms: _553  and  _555
REMARK  224  A    between atoms: _555  and  _556
REMARK  225  A    between atoms: _555  and  _558
REMARK  226  A    between atoms: _558  and  _559
REMARK  227  A    between atoms: _565  and  _567
REMARK  228  A    between atoms: _567  and  _568
REMARK  229  A    between atoms: _567  and  _570
REMARK  230  A    between atoms: _570  and  _571
REMARK  231  A    between atoms: _576  and  _577
REMARK  232  A    between atoms: _579  and  _581
REMARK  233  A    between atoms: _581  and  _582
REMARK  234  A    between atoms: _581  and  _584
REMARK  235  A    between atoms: _584  and  _585
REMARK                            x       y       z     vdW  Elec       q    Type
REMARK                         _______ _______ _______ _____ _____    ______ ____
ROOT
ATOM      1  O   HOH     1      12.374 -14.529  31.656  0.00  0.00    +0.000 OA
ENDROOT
TORSDOF 0
REMARK  Name = ../refined-set-2016/1z71/1z71_pocket.pdb
REMARK  235 active torsions:
REMARK  status: ('A' for Active; 'I' for Inactive)
REMARK    1  A    between atoms: _1  and  _5
REMARK    2  A    between atoms: _5  and  _6
REMARK    3  A    between atoms: _5  and  _8
REMARK    4  A    between atoms: _8  and  _9
REMARK    5  A    between atoms: _12  and  _14
REMARK    6  A    between atoms: _14  and  _15
REMARK    7  A    between atoms: _14  and  _17
REMARK    8  A    between atoms: _20  and  _22
REMARK    9  A    between atoms: _22  and  _23
REMARK   10  A    between atoms: _22  and  _25
REMARK   11  A    between atoms: _25  and  _26
REMARK   12  A    between atoms: _26  and  _61
REMARK   13  A    between atoms: _27  and  _29
REMARK   14  A    between atoms: _29  and  _30
REMARK   15  A    between atoms: _32  and  _34
REMARK   16  A    between atoms: _34  and  _35
REMARK   17  A    between atoms: _38  and  _40
REMARK   18  A    between atoms: _40  and  _41
REMARK   19  A    between atoms: _44  and  _46
REMARK   20  A    between atoms: _46  and  _47
REMARK   21  A    between atoms: _46  and  _49
REMARK   22  A    between atoms: _49  and  _50
REMARK   23  A    between atoms: _55  and  _57
REMARK   24  A    between atoms: _57  and  _58
REMARK   25  A    between atoms: _57  and  _60
REMARK   26  A    between atoms: _60  and  _61
REMARK   27  A    between atoms: _62  and  _64
REMARK   28  A    between atoms: _64  and  _65
REMARK   29  A    between atoms: _64  and  _67
REMARK   30  A    between atoms: _67  and  _68
REMARK   31  A    between atoms: _71  and  _73
REMARK   32  A    between atoms: _73  and  _74
REMARK   33  A    between atoms: _73  and  _76
REMARK   34  A    between atoms: _76  and  _77
REMARK   35  A    between atoms: _82  and  _83
REMARK   36  A    between atoms: _86  and  _87
REMARK   37  A    between atoms: _92  and  _94
REMARK   38  A    between atoms: _94  and  _95
REMARK   39  A    between atoms: _94  and  _97
REMARK   40  A    between atoms: _97  and  _98
REMARK   41  A    between atoms: _108  and  _110
REMARK   42  A    between atoms: _110  and  _111
REMARK   43  A    between atoms: _110  and  _113
REMARK   44  A    between atoms: _113  and  _114
REMARK   45  A    between atoms: _114  and  _115
REMARK   46  A    between atoms: _115  and  _116
REMARK   47  A    between atoms: _116  and  _117
REMARK   48  A    between atoms: _121  and  _123
REMARK   49  A    between atoms: _123  and  _124
REMARK   50  A    between atoms: _123  and  _126
REMARK   51  A    between atoms: _126  and  _127
REMARK   52  A    between atoms: _132  and  _133
REMARK   53  A    between atoms: _135  and  _137
REMARK   54  A    between atoms: _137  and  _138
REMARK   55  A    between atoms: _137  and  _140
REMARK   56  A    between atoms: _140  and  _141
REMARK   57  A    between atoms: _146  and  _148
REMARK   58  A    between atoms: _148  and  _149
REMARK   59  A    between atoms: _148  and  _151
REMARK   60  A    between atoms: _151  and  _152
REMARK   61  A    between atoms: _162  and  _164
REMARK   62  A    between atoms: _164  and  _165
REMARK   63  A    between atoms: _164  and  _167
REMARK   64  A    between atoms: _167  and  _168
REMARK   65  A    between atoms: _168  and  _169
REMARK   66  A    between atoms: _169  and  _170
REMARK   67  A    between atoms: _179  and  _181
REMARK   68  A    between atoms: _181  and  _182
REMARK   69  A    between atoms: _181  and  _184
REMARK   70  A    between atoms: _184  and  _185
REMARK   71  A    between atoms: _185  and  _186
REMARK   72  A    between atoms: _189  and  _191
REMARK   73  A    between atoms: _191  and  _192
REMARK   74  A    between atoms: _191  and  _194
REMARK   75  A    between atoms: _194  and  _195
REMARK   76  A    between atoms: _200  and  _202
REMARK   77  A    between atoms: _202  and  _203
REMARK   78  A    between atoms: _202  and  _205
REMARK   79  A    between atoms: _205  and  _206
REMARK   80  A    between atoms: _209  and  _211
REMARK   81  A    between atoms: _211  and  _212
REMARK   82  A    between atoms: _211  and  _214
REMARK   83  A    between atoms: _214  and  _215
REMARK   84  A    between atoms: _218  and  _220
REMARK   85  A    between atoms: _220  and  _221
REMARK   86  A    between atoms: _220  and  _223
REMARK   87  A    between atoms: _223  and  _224
REMARK   88  A    between atoms: _227  and  _229
REMARK   89  A    between atoms: _229  and  _230
REMARK   90  A    between atoms: _229  and  _232
REMARK   91  A    between atoms: _235  and  _237
REMARK   92  A    between atoms: _237  and  _238
REMARK   93  A    between atoms: _240  and  _242
REMARK   94  A    between atoms: _242  and  _243
REMARK   95  A    between atoms: _242  and  _245
REMARK   96  A    between atoms: _245  and  _246
REMARK   97  A    between atoms: _251  and  _253
REMARK   98  A    between atoms: _253  and  _254
REMARK   99  A    between atoms: _253  and  _256
REMARK  100  A    between atoms: _256  and  _257
REMARK  101  A    between atoms: _260  and  _262
REMARK  102  A    between atoms: _262  and  _263
REMARK  103  A    between atoms: _262  and  _265
REMARK  104  A    between atoms: _265  and  _266
REMARK  105  A    between atoms: _269  and  _271
REMARK  106  A    between atoms: _271  and  _272
REMARK  107  A    between atoms: _271  and  _274
REMARK  108  A    between atoms: _274  and  _275
REMARK  109  A    between atoms: _275  and  _276
REMARK  110  A    between atoms: _276  and  _277
REMARK  111  A    between atoms: _286  and  _288
REMARK  112  A    between atoms: _288  and  _289
REMARK  113  A    between atoms: _288  and  _291
REMARK  114  A    between atoms: _291  and  _292
REMARK  115  A    between atoms: _295  and  _297
REMARK  116  A    between atoms: _297  and  _298
REMARK  117  A    between atoms: _297  and  _300
REMARK  118  A    between atoms: _300  and  _301
REMARK  119  A    between atoms: _301  and  _302
REMARK  120  A    between atoms: _302  and  _303
REMARK  121  A    between atoms: _312  and  _314
REMARK  122  A    between atoms: _314  and  _315
REMARK  123  A    between atoms: _314  and  _317
REMARK  124  A    between atoms: _317  and  _318
REMARK  125  A    between atoms: _318  and  _319
REMARK  126  A    between atoms: _321  and  _323
REMARK  127  A    between atoms: _323  and  _324
REMARK  128  A    between atoms: _323  and  _326
REMARK  129  A    between atoms: _326  and  _327
REMARK  130  A    between atoms: _333  and  _335
REMARK  131  A    between atoms: _335  and  _336
REMARK  132  A    between atoms: _335  and  _338
REMARK  133  A    between atoms: _340  and  _342
REMARK  134  A    between atoms: _342  and  _343
REMARK  135  A    between atoms: _346  and  _348
REMARK  136  A    between atoms: _348  and  _349
REMARK  137  A    between atoms: _351  and  _353
REMARK  138  A    between atoms: _353  and  _354
REMARK  139  A    between atoms: _353  and  _356
REMARK  140  A    between atoms: _356  and  _357
REMARK  141  A    between atoms: _360  and  _362
REMARK  142  A    between atoms: _362  and  _363
REMARK  143  A    between atoms: _366  and  _368
REMARK  144  A    between atoms: _368  and  _369
REMARK  145  A    between atoms: _368  and  _371
REMARK  146  A    between atoms: _371  and  _372
REMARK  147  A    between atoms: _372  and  _494
REMARK  148  A    between atoms: _373  and  _375
REMARK  149  A    between atoms: _375  and  _376
REMARK  150  A    between atoms: _375  and  _378
REMARK  151  A    between atoms: _378  and  _379
REMARK  152  A    between atoms: _379  and  _380
REMARK  153  A    between atoms: _383  and  _385
REMARK  154  A    between atoms: _385  and  _386
REMARK  155  A    between atoms: _388  and  _390
REMARK  156  A    between atoms: _390  and  _391
REMARK  157  A    between atoms: _390  and  _393
REMARK  158  A    between atoms: _393  and  _394
REMARK  159  A    between atoms: _397  and  _399
REMARK  160  A    between atoms: _399  and  _400
REMARK  161  A    between atoms: _399  and  _402
REMARK  162  A    between atoms: _402  and  _403
REMARK  163  A    between atoms: _405  and  _407
REMARK  164  A    between atoms: _407  and  _408
REMARK  165  A    between atoms: _410  and  _412
REMARK  166  A    between atoms: _412  and  _413
REMARK  167  A    between atoms: _415  and  _417
REMARK  168  A    between atoms: _417  and  _418
REMARK  169  A    between atoms: _417  and  _420
REMARK  170  A    between atoms: _420  and  _421
REMARK  171  A    between atoms: _427  and  _429
REMARK  172  A    between atoms: _429  and  _430
REMARK  173  A    between atoms: _429  and  _432
REMARK  174  A    between atoms: _432  and  _433
REMARK  175  A    between atoms: _436  and  _438
REMARK  176  A    between atoms: _438  and  _439
REMARK  177  A    between atoms: _438  and  _441
REMARK  178  A    between atoms: _444  and  _446
REMARK  179  A    between atoms: _446  and  _447
REMARK  180  A    between atoms: _446  and  _449
REMARK  181  A    between atoms: _449  and  _450
REMARK  182  A    between atoms: _452  and  _454
REMARK  183  A    between atoms: _454  and  _455
REMARK  184  A    between atoms: _454  and  _457
REMARK  185  A    between atoms: _457  and  _458
REMARK  186  A    between atoms: _468  and  _470
REMARK  187  A    between atoms: _470  and  _471
REMARK  188  A    between atoms: _473  and  _475
REMARK  189  A    between atoms: _475  and  _476
REMARK  190  A    between atoms: _475  and  _478
REMARK  191  A    between atoms: _478  and  _479
REMARK  192  A    between atoms: _479  and  _480
REMARK  193  A    between atoms: _483  and  _485
REMARK  194  A    between atoms: _485  and  _486
REMARK  195  A    between atoms: _488  and  _490
REMARK  196  A    between atoms: _490  and  _491
REMARK  197  A    between atoms: _490  and  _493
REMARK  198  A    between atoms: _493  and  _494
REMARK  199  A    between atoms: _495  and  _497
REMARK  200  A    between atoms: _497  and  _498
REMARK  201  A    between atoms: _497  and  _500
REMARK  202  A    between atoms: _500  and  _501
REMARK  203  A    between atoms: _504  and  _506
REMARK  204  A    between atoms: _506  and  _507
REMARK  205  A    between atoms: _506  and  _509
REMARK  206  A    between atoms: _509  and  _510
REMARK  207  A    between atoms: _510  and  _511
REMARK  208  A    between atoms: _511  and  _512
REMARK  209  A    between atoms: _521  and  _523
REMARK  210  A    between atoms: _523  and  _524
REMARK  211  A    between atoms: _523  and  _526
REMARK  212  A    between atoms: _526  and  _527
REMARK  213  A    between atoms: _527  and  _528
REMARK  214  A    between atoms: _528  and  _529
REMARK  215  A    between atoms: _529  and  _530
REMARK  216  A    between atoms: _534  and  _536
REMARK  217  A    between atoms: _536  and  _537
REMARK  218  A    between atoms: _536  and  _539
REMARK  219  A    between atoms: _539  and  _540
REMARK  220  A    between atoms: _545  and  _546
REMARK  221  A    between atoms: _548  and  _550
REMARK  222  A    between atoms: _550  and  _551
REMARK  223  A    between atoms: _553  and  _555
REMARK  224  A    between atoms: _555  and  _556
REMARK  225  A    between atoms: _555  and  _558
REMARK  226  A    between atoms: _558  and  _559
REMARK  227  A    between atoms: _565  and  _567
REMARK  228  A    between atoms: _567  and  _568
REMARK  229  A    between atoms: _567  and  _570
REMARK  230  A    between atoms: _570  and  _571
REMARK  231  A    between atoms: _576  and  _577
REMARK  232  A    between atoms: _579  and  _581
REMARK  233  A    between atoms: _581  and  _582
REMARK  234  A    between atoms: _581  and  _584
REMARK  235  A    between atoms: _584  and  _585
REMARK                            x       y       z     vdW  Elec       q    Type
REMARK                         _______ _______ _______ _____ _____    ______ ____
ROOT
ATOM      1  O   HOH     1       8.773 -16.080  26.825  0.00  0.00    +0.000 OA
ENDROOT
TORSDOF 0
REMARK  Name = ../refined-set-2016/1z71/1z71_pocket.pdb
REMARK  235 active torsions:
REMARK  status: ('A' for Active; 'I' for Inactive)
REMARK    1  A    between atoms: _1  and  _5
REMARK    2  A    between atoms: _5  and  _6
REMARK    3  A    between atoms: _5  and  _8
REMARK    4  A    between atoms: _8  and  _9
REMARK    5  A    between atoms: _12  and  _14
REMARK    6  A    between atoms: _14  and  _15
REMARK    7  A    between atoms: _14  and  _17
REMARK    8  A    between atoms: _20  and  _22
REMARK    9  A    between atoms: _22  and  _23
REMARK   10  A    between atoms: _22  and  _25
REMARK   11  A    between atoms: _25  and  _26
REMARK   12  A    between atoms: _26  and  _61
REMARK   13  A    between atoms: _27  and  _29
REMARK   14  A    between atoms: _29  and  _30
REMARK   15  A    between atoms: _32  and  _34
REMARK   16  A    between atoms: _34  and  _35
REMARK   17  A    between atoms: _38  and  _40
REMARK   18  A    between atoms: _40  and  _41
REMARK   19  A    between atoms: _44  and  _46
REMARK   20  A    between atoms: _46  and  _47
REMARK   21  A    between atoms: _46  and  _49
REMARK   22  A    between atoms: _49  and  _50
REMARK   23  A    between atoms: _55  and  _57
REMARK   24  A    between atoms: _57  and  _58
REMARK   25  A    between atoms: _57  and  _60
REMARK   26  A    between atoms: _60  and  _61
REMARK   27  A    between atoms: _62  and  _64
REMARK   28  A    between atoms: _64  and  _65
REMARK   29  A    between atoms: _64  and  _67
REMARK   30  A    between atoms: _67  and  _68
REMARK   31  A    between atoms: _71  and  _73
REMARK   32  A    between atoms: _73  and  _74
REMARK   33  A    between atoms: _73  and  _76
REMARK   34  A    between atoms: _76  and  _77
REMARK   35  A    between atoms: _82  and  _83
REMARK   36  A    between atoms: _86  and  _87
REMARK   37  A    between atoms: _92  and  _94
REMARK   38  A    between atoms: _94  and  _95
REMARK   39  A    between atoms: _94  and  _97
REMARK   40  A    between atoms: _97  and  _98
REMARK   41  A    between atoms: _108  and  _110
REMARK   42  A    between atoms: _110  and  _111
REMARK   43  A    between atoms: _110  and  _113
REMARK   44  A    between atoms: _113  and  _114
REMARK   45  A    between atoms: _114  and  _115
REMARK   46  A    between atoms: _115  and  _116
REMARK   47  A    between atoms: _116  and  _117
REMARK   48  A    between atoms: _121  and  _123
REMARK   49  A    between atoms: _123  and  _124
REMARK   50  A    between atoms: _123  and  _126
REMARK   51  A    between atoms: _126  and  _127
REMARK   52  A    between atoms: _132  and  _133
REMARK   53  A    between atoms: _135  and  _137
REMARK   54  A    between atoms: _137  and  _138
REMARK   55  A    between atoms: _137  and  _140
REMARK   56  A    between atoms: _140  and  _141
REMARK   57  A    between atoms: _146  and  _148
REMARK   58  A    between atoms: _148  and  _149
REMARK   59  A    between atoms: _148  and  _151
REMARK   60  A    between atoms: _151  and  _152
REMARK   61  A    between atoms: _162  and  _164
REMARK   62  A    between atoms: _164  and  _165
REMARK   63  A    between atoms: _164  and  _167
REMARK   64  A    between atoms: _167  and  _168
REMARK   65  A    between atoms: _168  and  _169
REMARK   66  A    between atoms: _169  and  _170
REMARK   67  A    between atoms: _179  and  _181
REMARK   68  A    between atoms: _181  and  _182
REMARK   69  A    between atoms: _181  and  _184
REMARK   70  A    between atoms: _184  and  _185
REMARK   71  A    between atoms: _185  and  _186
REMARK   72  A    between atoms: _189  and  _191
REMARK   73  A    between atoms: _191  and  _192
REMARK   74  A    between atoms: _191  and  _194
REMARK   75  A    between atoms: _194  and  _195
REMARK   76  A    between atoms: _200  and  _202
REMARK   77  A    between atoms: _202  and  _203
REMARK   78  A    between atoms: _202  and  _205
REMARK   79  A    between atoms: _205  and  _206
REMARK   80  A    between atoms: _209  and  _211
REMARK   81  A    between atoms: _211  and  _212
REMARK   82  A    between atoms: _211  and  _214
REMARK   83  A    between atoms: _214  and  _215
REMARK   84  A    between atoms: _218  and  _220
REMARK   85  A    between atoms: _220  and  _221
REMARK   86  A    between atoms: _220  and  _223
REMARK   87  A    between atoms: _223  and  _224
REMARK   88  A    between atoms: _227  and  _229
REMARK   89  A    between atoms: _229  and  _230
REMARK   90  A    between atoms: _229  and  _232
REMARK   91  A    between atoms: _235  and  _237
REMARK   92  A    between atoms: _237  and  _238
REMARK   93  A    between atoms: _240  and  _242
REMARK   94  A    between atoms: _242  and  _243
REMARK   95  A    between atoms: _242  and  _245
REMARK   96  A    between atoms: _245  and  _246
REMARK   97  A    between atoms: _251  and  _253
REMARK   98  A    between atoms: _253  and  _254
REMARK   99  A    between atoms: _253  and  _256
REMARK  100  A    between atoms: _256  and  _257
REMARK  101  A    between atoms: _260  and  _262
REMARK  102  A    between atoms: _262  and  _263
REMARK  103  A    between atoms: _262  and  _265
REMARK  104  A    between atoms: _265  and  _266
REMARK  105  A    between atoms: _269  and  _271
REMARK  106  A    between atoms: _271  and  _272
REMARK  107  A    between atoms: _271  and  _274
REMARK  108  A    between atoms: _274  and  _275
REMARK  109  A    between atoms: _275  and  _276
REMARK  110  A    between atoms: _276  and  _277
REMARK  111  A    between atoms: _286  and  _288
REMARK  112  A    between atoms: _288  and  _289
REMARK  113  A    between atoms: _288  and  _291
REMARK  114  A    between atoms: _291  and  _292
REMARK  115  A    between atoms: _295  and  _297
REMARK  116  A    between atoms: _297  and  _298
REMARK  117  A    between atoms: _297  and  _300
REMARK  118  A    between atoms: _300  and  _301
REMARK  119  A    between atoms: _301  and  _302
REMARK  120  A    between atoms: _302  and  _303
REMARK  121  A    between atoms: _312  and  _314
REMARK  122  A    between atoms: _314  and  _315
REMARK  123  A    between atoms: _314  and  _317
REMARK  124  A    between atoms: _317  and  _318
REMARK  125  A    between atoms: _318  and  _319
REMARK  126  A    between atoms: _321  and  _323
REMARK  127  A    between atoms: _323  and  _324
REMARK  128  A    between atoms: _323  and  _326
REMARK  129  A    between atoms: _326  and  _327
REMARK  130  A    between atoms: _333  and  _335
REMARK  131  A    between atoms: _335  and  _336
REMARK  132  A    between atoms: _335  and  _338
REMARK  133  A    between atoms: _340  and  _342
REMARK  134  A    between atoms: _342  and  _343
REMARK  135  A    between atoms: _346  and  _348
REMARK  136  A    between atoms: _348  and  _349
REMARK  137  A    between atoms: _351  and  _353
REMARK  138  A    between atoms: _353  and  _354
REMARK  139  A    between atoms: _353  and  _356
REMARK  140  A    between atoms: _356  and  _357
REMARK  141  A    between atoms: _360  and  _362
REMARK  142  A    between atoms: _362  and  _363
REMARK  143  A    between atoms: _366  and  _368
REMARK  144  A    between atoms: _368  and  _369
REMARK  145  A    between atoms: _368  and  _371
REMARK  146  A    between atoms: _371  and  _372
REMARK  147  A    between atoms: _372  and  _494
REMARK  148  A    between atoms: _373  and  _375
REMARK  149  A    between atoms: _375  and  _376
REMARK  150  A    between atoms: _375  and  _378
REMARK  151  A    between atoms: _378  and  _379
REMARK  152  A    between atoms: _379  and  _380
REMARK  153  A    between atoms: _383  and  _385
REMARK  154  A    between atoms: _385  and  _386
REMARK  155  A    between atoms: _388  and  _390
REMARK  156  A    between atoms: _390  and  _391
REMARK  157  A    between atoms: _390  and  _393
REMARK  158  A    between atoms: _393  and  _394
REMARK  159  A    between atoms: _397  and  _399
REMARK  160  A    between atoms: _399  and  _400
REMARK  161  A    between atoms: _399  and  _402
REMARK  162  A    between atoms: _402  and  _403
REMARK  163  A    between atoms: _405  and  _407
REMARK  164  A    between atoms: _407  and  _408
REMARK  165  A    between atoms: _410  and  _412
REMARK  166  A    between atoms: _412  and  _413
REMARK  167  A    between atoms: _415  and  _417
REMARK  168  A    between atoms: _417  and  _418
REMARK  169  A    between atoms: _417  and  _420
REMARK  170  A    between atoms: _420  and  _421
REMARK  171  A    between atoms: _427  and  _429
REMARK  172  A    between atoms: _429  and  _430
REMARK  173  A    between atoms: _429  and  _432
REMARK  174  A    between atoms: _432  and  _433
REMARK  175  A    between atoms: _436  and  _438
REMARK  176  A    between atoms: _438  and  _439
REMARK  177  A    between atoms: _438  and  _441
REMARK  178  A    between atoms: _444  and  _446
REMARK  179  A    between atoms: _446  and  _447
REMARK  180  A    between atoms: _446  and  _449
REMARK  181  A    between atoms: _449  and  _450
REMARK  182  A    between atoms: _452  and  _454
REMARK  183  A    between atoms: _454  and  _455
REMARK  184  A    between atoms: _454  and  _457
REMARK  185  A    between atoms: _457  and  _458
REMARK  186  A    between atoms: _468  and  _470
REMARK  187  A    between atoms: _470  and  _471
REMARK  188  A    between atoms: _473  and  _475
REMARK  189  A    between atoms: _475  and  _476
REMARK  190  A    between atoms: _475  and  _478
REMARK  191  A    between atoms: _478  and  _479
REMARK  192  A    between atoms: _479  and  _480
REMARK  193  A    between atoms: _483  and  _485
REMARK  194  A    between atoms: _485  and  _486
REMARK  195  A    between atoms: _488  and  _490
REMARK  196  A    between atoms: _490  and  _491
REMARK  197  A    between atoms: _490  and  _493
REMARK  198  A    between atoms: _493  and  _494
REMARK  199  A    between atoms: _495  and  _497
REMARK  200  A    between atoms: _497  and  _498
REMARK  201  A    between atoms: _497  and  _500
REMARK  202  A    between atoms: _500  and  _501
REMARK  203  A    between atoms: _504  and  _506
REMARK  204  A    between atoms: _506  and  _507
REMARK  205  A    between atoms: _506  and  _509
REMARK  206  A    between atoms: _509  and  _510
REMARK  207  A    between atoms: _510  and  _511
REMARK  208  A    between atoms: _511  and  _512
REMARK  209  A    between atoms: _521  and  _523
REMARK  210  A    between atoms: _523  and  _524
REMARK  211  A    between atoms: _523  and  _526
REMARK  212  A    between atoms: _526  and  _527
REMARK  213  A    between atoms: _527  and  _528
REMARK  214  A    between atoms: _528  and  _529
REMARK  215  A    between atoms: _529  and  _530
REMARK  216  A    between atoms: _534  and  _536
REMARK  217  A    between atoms: _536  and  _537
REMARK  218  A    between atoms: _536  and  _539
REMARK  219  A    between atoms: _539  and  _540
REMARK  220  A    between atoms: _545  and  _546
REMARK  221  A    between atoms: _548  and  _550
REMARK  222  A    between atoms: _550  and  _551
REMARK  223  A    between atoms: _553  and  _555
REMARK  224  A    between atoms: _555  and  _556
REMARK  225  A    between atoms: _555  and  _558
REMARK  226  A    between atoms: _558  and  _559
REMARK  227  A    between atoms: _565  and  _567
REMARK  228  A    between atoms: _567  and  _568
REMARK  229  A    between atoms: _567  and  _570
REMARK  230  A    between atoms: _570  and  _571
REMARK  231  A    between atoms: _576  and  _577
REMARK  232  A    between atoms: _579  and  _581
REMARK  233  A    between atoms: _581  and  _582
REMARK  234  A    between atoms: _581  and  _584
REMARK  235  A    between atoms: _584  and  _585
REMARK                            x       y       z     vdW  Elec       q    Type
REMARK                         _______ _______ _______ _____ _____    ______ ____
ROOT
ATOM      1  O   HOH     1      14.569 -10.812  15.944  0.00  0.00    +0.000 OA
ENDROOT
TORSDOF 0
REMARK  Name = ../refined-set-2016/1z71/1z71_pocket.pdb
REMARK  235 active torsions:
REMARK  status: ('A' for Active; 'I' for Inactive)
REMARK    1  A    between atoms: _1  and  _5
REMARK    2  A    between atoms: _5  and  _6
REMARK    3  A    between atoms: _5  and  _8
REMARK    4  A    between atoms: _8  and  _9
REMARK    5  A    between atoms: _12  and  _14
REMARK    6  A    between atoms: _14  and  _15
REMARK    7  A    between atoms: _14  and  _17
REMARK    8  A    between atoms: _20  and  _22
REMARK    9  A    between atoms: _22  and  _23
REMARK   10  A    between atoms: _22  and  _25
REMARK   11  A    between atoms: _25  and  _26
REMARK   12  A    between atoms: _26  and  _61
REMARK   13  A    between atoms: _27  and  _29
REMARK   14  A    between atoms: _29  and  _30
REMARK   15  A    between atoms: _32  and  _34
REMARK   16  A    between atoms: _34  and  _35
REMARK   17  A    between atoms: _38  and  _40
REMARK   18  A    between atoms: _40  and  _41
REMARK   19  A    between atoms: _44  and  _46
REMARK   20  A    between atoms: _46  and  _47
REMARK   21  A    between atoms: _46  and  _49
REMARK   22  A    between atoms: _49  and  _50
REMARK   23  A    between atoms: _55  and  _57
REMARK   24  A    between atoms: _57  and  _58
REMARK   25  A    between atoms: _57  and  _60
REMARK   26  A    between atoms: _60  and  _61
REMARK   27  A    between atoms: _62  and  _64
REMARK   28  A    between atoms: _64  and  _65
REMARK   29  A    between atoms: _64  and  _67
REMARK   30  A    between atoms: _67  and  _68
REMARK   31  A    between atoms: _71  and  _73
REMARK   32  A    between atoms: _73  and  _74
REMARK   33  A    between atoms: _73  and  _76
REMARK   34  A    between atoms: _76  and  _77
REMARK   35  A    between atoms: _82  and  _83
REMARK   36  A    between atoms: _86  and  _87
REMARK   37  A    between atoms: _92  and  _94
REMARK   38  A    between atoms: _94  and  _95
REMARK   39  A    between atoms: _94  and  _97
REMARK   40  A    between atoms: _97  and  _98
REMARK   41  A    between atoms: _108  and  _110
REMARK   42  A    between atoms: _110  and  _111
REMARK   43  A    between atoms: _110  and  _113
REMARK   44  A    between atoms: _113  and  _114
REMARK   45  A    between atoms: _114  and  _115
REMARK   46  A    between atoms: _115  and  _116
REMARK   47  A    between atoms: _116  and  _117
REMARK   48  A    between atoms: _121  and  _123
REMARK   49  A    between atoms: _123  and  _124
REMARK   50  A    between atoms: _123  and  _126
REMARK   51  A    between atoms: _126  and  _127
REMARK   52  A    between atoms: _132  and  _133
REMARK   53  A    between atoms: _135  and  _137
REMARK   54  A    between atoms: _137  and  _138
REMARK   55  A    between atoms: _137  and  _140
REMARK   56  A    between atoms: _140  and  _141
REMARK   57  A    between atoms: _146  and  _148
REMARK   58  A    between atoms: _148  and  _149
REMARK   59  A    between atoms: _148  and  _151
REMARK   60  A    between atoms: _151  and  _152
REMARK   61  A    between atoms: _162  and  _164
REMARK   62  A    between atoms: _164  and  _165
REMARK   63  A    between atoms: _164  and  _167
REMARK   64  A    between atoms: _167  and  _168
REMARK   65  A    between atoms: _168  and  _169
REMARK   66  A    between atoms: _169  and  _170
REMARK   67  A    between atoms: _179  and  _181
REMARK   68  A    between atoms: _181  and  _182
REMARK   69  A    between atoms: _181  and  _184
REMARK   70  A    between atoms: _184  and  _185
REMARK   71  A    between atoms: _185  and  _186
REMARK   72  A    between atoms: _189  and  _191
REMARK   73  A    between atoms: _191  and  _192
REMARK   74  A    between atoms: _191  and  _194
REMARK   75  A    between atoms: _194  and  _195
REMARK   76  A    between atoms: _200  and  _202
REMARK   77  A    between atoms: _202  and  _203
REMARK   78  A    between atoms: _202  and  _205
REMARK   79  A    between atoms: _205  and  _206
REMARK   80  A    between atoms: _209  and  _211
REMARK   81  A    between atoms: _211  and  _212
REMARK   82  A    between atoms: _211  and  _214
REMARK   83  A    between atoms: _214  and  _215
REMARK   84  A    between atoms: _218  and  _220
REMARK   85  A    between atoms: _220  and  _221
REMARK   86  A    between atoms: _220  and  _223
REMARK   87  A    between atoms: _223  and  _224
REMARK   88  A    between atoms: _227  and  _229
REMARK   89  A    between atoms: _229  and  _230
REMARK   90  A    between atoms: _229  and  _232
REMARK   91  A    between atoms: _235  and  _237
REMARK   92  A    between atoms: _237  and  _238
REMARK   93  A    between atoms: _240  and  _242
REMARK   94  A    between atoms: _242  and  _243
REMARK   95  A    between atoms: _242  and  _245
REMARK   96  A    between atoms: _245  and  _246
REMARK   97  A    between atoms: _251  and  _253
REMARK   98  A    between atoms: _253  and  _254
REMARK   99  A    between atoms: _253  and  _256
REMARK  100  A    between atoms: _256  and  _257
REMARK  101  A    between atoms: _260  and  _262
REMARK  102  A    between atoms: _262  and  _263
REMARK  103  A    between atoms: _262  and  _265
REMARK  104  A    between atoms: _265  and  _266
REMARK  105  A    between atoms: _269  and  _271
REMARK  106  A    between atoms: _271  and  _272
REMARK  107  A    between atoms: _271  and  _274
REMARK  108  A    between atoms: _274  and  _275
REMARK  109  A    between atoms: _275  and  _276
REMARK  110  A    between atoms: _276  and  _277
REMARK  111  A    between atoms: _286  and  _288
REMARK  112  A    between atoms: _288  and  _289
REMARK  113  A    between atoms: _288  and  _291
REMARK  114  A    between atoms: _291  and  _292
REMARK  115  A    between atoms: _295  and  _297
REMARK  116  A    between atoms: _297  and  _298
REMARK  117  A    between atoms: _297  and  _300
REMARK  118  A    between atoms: _300  and  _301
REMARK  119  A    between atoms: _301  and  _302
REMARK  120  A    between atoms: _302  and  _303
REMARK  121  A    between atoms: _312  and  _314
REMARK  122  A    between atoms: _314  and  _315
REMARK  123  A    between atoms: _314  and  _317
REMARK  124  A    between atoms: _317  and  _318
REMARK  125  A    between atoms: _318  and  _319
REMARK  126  A    between atoms: _321  and  _323
REMARK  127  A    between atoms: _323  and  _324
REMARK  128  A    between atoms: _323  and  _326
REMARK  129  A    between atoms: _326  and  _327
REMARK  130  A    between atoms: _333  and  _335
REMARK  131  A    between atoms: _335  and  _336
REMARK  132  A    between atoms: _335  and  _338
REMARK  133  A    between atoms: _340  and  _342
REMARK  134  A    between atoms: _342  and  _343
REMARK  135  A    between atoms: _346  and  _348
REMARK  136  A    between atoms: _348  and  _349
REMARK  137  A    between atoms: _351  and  _353
REMARK  138  A    between atoms: _353  and  _354
REMARK  139  A    between atoms: _353  and  _356
REMARK  140  A    between atoms: _356  and  _357
REMARK  141  A    between atoms: _360  and  _362
REMARK  142  A    between atoms: _362  and  _363
REMARK  143  A    between atoms: _366  and  _368
REMARK  144  A    between atoms: _368  and  _369
REMARK  145  A    between atoms: _368  and  _371
REMARK  146  A    between atoms: _371  and  _372
REMARK  147  A    between atoms: _372  and  _494
REMARK  148  A    between atoms: _373  and  _375
REMARK  149  A    between atoms: _375  and  _376
REMARK  150  A    between atoms: _375  and  _378
REMARK  151  A    between atoms: _378  and  _379
REMARK  152  A    between atoms: _379  and  _380
REMARK  153  A    between atoms: _383  and  _385
REMARK  154  A    between atoms: _385  and  _386
REMARK  155  A    between atoms: _388  and  _390
REMARK  156  A    between atoms: _390  and  _391
REMARK  157  A    between atoms: _390  and  _393
REMARK  158  A    between atoms: _393  and  _394
REMARK  159  A    between atoms: _397  and  _399
REMARK  160  A    between atoms: _399  and  _400
REMARK  161  A    between atoms: _399  and  _402
REMARK  162  A    between atoms: _402  and  _403
REMARK  163  A    between atoms: _405  and  _407
REMARK  164  A    between atoms: _407  and  _408
REMARK  165  A    between atoms: _410  and  _412
REMARK  166  A    between atoms: _412  and  _413
REMARK  167  A    between atoms: _415  and  _417
REMARK  168  A    between atoms: _417  and  _418
REMARK  169  A    between atoms: _417  and  _420
REMARK  170  A    between atoms: _420  and  _421
REMARK  171  A    between atoms: _427  and  _429
REMARK  172  A    between atoms: _429  and  _430
REMARK  173  A    between atoms: _429  and  _432
REMARK  174  A    between atoms: _432  and  _433
REMARK  175  A    between atoms: _436  and  _438
REMARK  176  A    between atoms: _438  and  _439
REMARK  177  A    between atoms: _438  and  _441
REMARK  178  A    between atoms: _444  and  _446
REMARK  179  A    between atoms: _446  and  _447
REMARK  180  A    between atoms: _446  and  _449
REMARK  181  A    between atoms: _449  and  _450
REMARK  182  A    between atoms: _452  and  _454
REMARK  183  A    between atoms: _454  and  _455
REMARK  184  A    between atoms: _454  and  _457
REMARK  185  A    between atoms: _457  and  _458
REMARK  186  A    between atoms: _468  and  _470
REMARK  187  A    between atoms: _470  and  _471
REMARK  188  A    between atoms: _473  and  _475
REMARK  189  A    between atoms: _475  and  _476
REMARK  190  A    between atoms: _475  and  _478
REMARK  191  A    between atoms: _478  and  _479
REMARK  192  A    between atoms: _479  and  _480
REMARK  193  A    between atoms: _483  and  _485
REMARK  194  A    between atoms: _485  and  _486
REMARK  195  A    between atoms: _488  and  _490
REMARK  196  A    between atoms: _490  and  _491
REMARK  197  A    between atoms: _490  and  _493
REMARK  198  A    between atoms: _493  and  _494
REMARK  199  A    between atoms: _495  and  _497
REMARK  200  A    between atoms: _497  and  _498
REMARK  201  A    between atoms: _497  and  _500
REMARK  202  A    between atoms: _500  and  _501
REMARK  203  A    between atoms: _504  and  _506
REMARK  204  A    between atoms: _506  and  _507
REMARK  205  A    between atoms: _506  and  _509
REMARK  206  A    between atoms: _509  and  _510
REMARK  207  A    between atoms: _510  and  _511
REMARK  208  A    between atoms: _511  and  _512
REMARK  209  A    between atoms: _521  and  _523
REMARK  210  A    between atoms: _523  and  _524
REMARK  211  A    between atoms: _523  and  _526
REMARK  212  A    between atoms: _526  and  _527
REMARK  213  A    between atoms: _527  and  _528
REMARK  214  A    between atoms: _528  and  _529
REMARK  215  A    between atoms: _529  and  _530
REMARK  216  A    between atoms: _534  and  _536
REMARK  217  A    between atoms: _536  and  _537
REMARK  218  A    between atoms: _536  and  _539
REMARK  219  A    between atoms: _539  and  _540
REMARK  220  A    between atoms: _545  and  _546
REMARK  221  A    between atoms: _548  and  _550
REMARK  222  A    between atoms: _550  and  _551
REMARK  223  A    between atoms: _553  and  _555
REMARK  224  A    between atoms: _555  and  _556
REMARK  225  A    between atoms: _555  and  _558
REMARK  226  A    between atoms: _558  and  _559
REMARK  227  A    between atoms: _565  and  _567
REMARK  228  A    between atoms: _567  and  _568
REMARK  229  A    between atoms: _567  and  _570
REMARK  230  A    between atoms: _570  and  _571
REMARK  231  A    between atoms: _576  and  _577
REMARK  232  A    between atoms: _579  and  _581
REMARK  233  A    between atoms: _581  and  _582
REMARK  234  A    between atoms: _581  and  _584
REMARK  235  A    between atoms: _584  and  _585
REMARK                            x       y       z     vdW  Elec       q    Type
REMARK                         _______ _______ _______ _____ _____    ______ ____
ROOT
ATOM      1  O   HOH     1      20.500  -6.738  26.453  0.00  0.00    +0.000 OA
ENDROOT
TORSDOF 0
REMARK  Name = ../refined-set-2016/1z71/1z71_pocket.pdb
REMARK  235 active torsions:
REMARK  status: ('A' for Active; 'I' for Inactive)
REMARK    1  A    between atoms: _1  and  _5
REMARK    2  A    between atoms: _5  and  _6
REMARK    3  A    between atoms: _5  and  _8
REMARK    4  A    between atoms: _8  and  _9
REMARK    5  A    between atoms: _12  and  _14
REMARK    6  A    between atoms: _14  and  _15
REMARK    7  A    between atoms: _14  and  _17
REMARK    8  A    between atoms: _20  and  _22
REMARK    9  A    between atoms: _22  and  _23
REMARK   10  A    between atoms: _22  and  _25
REMARK   11  A    between atoms: _25  and  _26
REMARK   12  A    between atoms: _26  and  _61
REMARK   13  A    between atoms: _27  and  _29
REMARK   14  A    between atoms: _29  and  _30
REMARK   15  A    between atoms: _32  and  _34
REMARK   16  A    between atoms: _34  and  _35
REMARK   17  A    between atoms: _38  and  _40
REMARK   18  A    between atoms: _40  and  _41
REMARK   19  A    between atoms: _44  and  _46
REMARK   20  A    between atoms: _46  and  _47
REMARK   21  A    between atoms: _46  and  _49
REMARK   22  A    between atoms: _49  and  _50
REMARK   23  A    between atoms: _55  and  _57
REMARK   24  A    between atoms: _57  and  _58
REMARK   25  A    between atoms: _57  and  _60
REMARK   26  A    between atoms: _60  and  _61
REMARK   27  A    between atoms: _62  and  _64
REMARK   28  A    between atoms: _64  and  _65
REMARK   29  A    between atoms: _64  and  _67
REMARK   30  A    between atoms: _67  and  _68
REMARK   31  A    between atoms: _71  and  _73
REMARK   32  A    between atoms: _73  and  _74
REMARK   33  A    between atoms: _73  and  _76
REMARK   34  A    between atoms: _76  and  _77
REMARK   35  A    between atoms: _82  and  _83
REMARK   36  A    between atoms: _86  and  _87
REMARK   37  A    between atoms: _92  and  _94
REMARK   38  A    between atoms: _94  and  _95
REMARK   39  A    between atoms: _94  and  _97
REMARK   40  A    between atoms: _97  and  _98
REMARK   41  A    between atoms: _108  and  _110
REMARK   42  A    between atoms: _110  and  _111
REMARK   43  A    between atoms: _110  and  _113
REMARK   44  A    between atoms: _113  and  _114
REMARK   45  A    between atoms: _114  and  _115
REMARK   46  A    between atoms: _115  and  _116
REMARK   47  A    between atoms: _116  and  _117
REMARK   48  A    between atoms: _121  and  _123
REMARK   49  A    between atoms: _123  and  _124
REMARK   50  A    between atoms: _123  and  _126
REMARK   51  A    between atoms: _126  and  _127
REMARK   52  A    between atoms: _132  and  _133
REMARK   53  A    between atoms: _135  and  _137
REMARK   54  A    between atoms: _137  and  _138
REMARK   55  A    between atoms: _137  and  _140
REMARK   56  A    between atoms: _140  and  _141
REMARK   57  A    between atoms: _146  and  _148
REMARK   58  A    between atoms: _148  and  _149
REMARK   59  A    between atoms: _148  and  _151
REMARK   60  A    between atoms: _151  and  _152
REMARK   61  A    between atoms: _162  and  _164
REMARK   62  A    between atoms: _164  and  _165
REMARK   63  A    between atoms: _164  and  _167
REMARK   64  A    between atoms: _167  and  _168
REMARK   65  A    between atoms: _168  and  _169
REMARK   66  A    between atoms: _169  and  _170
REMARK   67  A    between atoms: _179  and  _181
REMARK   68  A    between atoms: _181  and  _182
REMARK   69  A    between atoms: _181  and  _184
REMARK   70  A    between atoms: _184  and  _185
REMARK   71  A    between atoms: _185  and  _186
REMARK   72  A    between atoms: _189  and  _191
REMARK   73  A    between atoms: _191  and  _192
REMARK   74  A    between atoms: _191  and  _194
REMARK   75  A    between atoms: _194  and  _195
REMARK   76  A    between atoms: _200  and  _202
REMARK   77  A    between atoms: _202  and  _203
REMARK   78  A    between atoms: _202  and  _205
REMARK   79  A    between atoms: _205  and  _206
REMARK   80  A    between atoms: _209  and  _211
REMARK   81  A    between atoms: _211  and  _212
REMARK   82  A    between atoms: _211  and  _214
REMARK   83  A    between atoms: _214  and  _215
REMARK   84  A    between atoms: _218  and  _220
REMARK   85  A    between atoms: _220  and  _221
REMARK   86  A    between atoms: _220  and  _223
REMARK   87  A    between atoms: _223  and  _224
REMARK   88  A    between atoms: _227  and  _229
REMARK   89  A    between atoms: _229  and  _230
REMARK   90  A    between atoms: _229  and  _232
REMARK   91  A    between atoms: _235  and  _237
REMARK   92  A    between atoms: _237  and  _238
REMARK   93  A    between atoms: _240  and  _242
REMARK   94  A    between atoms: _242  and  _243
REMARK   95  A    between atoms: _242  and  _245
REMARK   96  A    between atoms: _245  and  _246
REMARK   97  A    between atoms: _251  and  _253
REMARK   98  A    between atoms: _253  and  _254
REMARK   99  A    between atoms: _253  and  _256
REMARK  100  A    between atoms: _256  and  _257
REMARK  101  A    between atoms: _260  and  _262
REMARK  102  A    between atoms: _262  and  _263
REMARK  103  A    between atoms: _262  and  _265
REMARK  104  A    between atoms: _265  and  _266
REMARK  105  A    between atoms: _269  and  _271
REMARK  106  A    between atoms: _271  and  _272
REMARK  107  A    between atoms: _271  and  _274
REMARK  108  A    between atoms: _274  and  _275
REMARK  109  A    between atoms: _275  and  _276
REMARK  110  A    between atoms: _276  and  _277
REMARK  111  A    between atoms: _286  and  _288
REMARK  112  A    between atoms: _288  and  _289
REMARK  113  A    between atoms: _288  and  _291
REMARK  114  A    between atoms: _291  and  _292
REMARK  115  A    between atoms: _295  and  _297
REMARK  116  A    between atoms: _297  and  _298
REMARK  117  A    between atoms: _297  and  _300
REMARK  118  A    between atoms: _300  and  _301
REMARK  119  A    between atoms: _301  and  _302
REMARK  120  A    between atoms: _302  and  _303
REMARK  121  A    between atoms: _312  and  _314
REMARK  122  A    between atoms: _314  and  _315
REMARK  123  A    between atoms: _314  and  _317
REMARK  124  A    between atoms: _317  and  _318
REMARK  125  A    between atoms: _318  and  _319
REMARK  126  A    between atoms: _321  and  _323
REMARK  127  A    between atoms: _323  and  _324
REMARK  128  A    between atoms: _323  and  _326
REMARK  129  A    between atoms: _326  and  _327
REMARK  130  A    between atoms: _333  and  _335
REMARK  131  A    between atoms: _335  and  _336
REMARK  132  A    between atoms: _335  and  _338
REMARK  133  A    between atoms: _340  and  _342
REMARK  134  A    between atoms: _342  and  _343
REMARK  135  A    between atoms: _346  and  _348
REMARK  136  A    between atoms: _348  and  _349
REMARK  137  A    between atoms: _351  and  _353
REMARK  138  A    between atoms: _353  and  _354
REMARK  139  A    between atoms: _353  and  _356
REMARK  140  A    between atoms: _356  and  _357
REMARK  141  A    between atoms: _360  and  _362
REMARK  142  A    between atoms: _362  and  _363
REMARK  143  A    between atoms: _366  and  _368
REMARK  144  A    between atoms: _368  and  _369
REMARK  145  A    between atoms: _368  and  _371
REMARK  146  A    between atoms: _371  and  _372
REMARK  147  A    between atoms: _372  and  _494
REMARK  148  A    between atoms: _373  and  _375
REMARK  149  A    between atoms: _375  and  _376
REMARK  150  A    between atoms: _375  and  _378
REMARK  151  A    between atoms: _378  and  _379
REMARK  152  A    between atoms: _379  and  _380
REMARK  153  A    between atoms: _383  and  _385
REMARK  154  A    between atoms: _385  and  _386
REMARK  155  A    between atoms: _388  and  _390
REMARK  156  A    between atoms: _390  and  _391
REMARK  157  A    between atoms: _390  and  _393
REMARK  158  A    between atoms: _393  and  _394
REMARK  159  A    between atoms: _397  and  _399
REMARK  160  A    between atoms: _399  and  _400
REMARK  161  A    between atoms: _399  and  _402
REMARK  162  A    between atoms: _402  and  _403
REMARK  163  A    between atoms: _405  and  _407
REMARK  164  A    between atoms: _407  and  _408
REMARK  165  A    between atoms: _410  and  _412
REMARK  166  A    between atoms: _412  and  _413
REMARK  167  A    between atoms: _415  and  _417
REMARK  168  A    between atoms: _417  and  _418
REMARK  169  A    between atoms: _417  and  _420
REMARK  170  A    between atoms: _420  and  _421
REMARK  171  A    between atoms: _427  and  _429
REMARK  172  A    between atoms: _429  and  _430
REMARK  173  A    between atoms: _429  and  _432
REMARK  174  A    between atoms: _432  and  _433
REMARK  175  A    between atoms: _436  and  _438
REMARK  176  A    between atoms: _438  and  _439
REMARK  177  A    between atoms: _438  and  _441
REMARK  178  A    between atoms: _444  and  _446
REMARK  179  A    between atoms: _446  and  _447
REMARK  180  A    between atoms: _446  and  _449
REMARK  181  A    between atoms: _449  and  _450
REMARK  182  A    between atoms: _452  and  _454
REMARK  183  A    between atoms: _454  and  _455
REMARK  184  A    between atoms: _454  and  _457
REMARK  185  A    between atoms: _457  and  _458
REMARK  186  A    between atoms: _468  and  _470
REMARK  187  A    between atoms: _470  and  _471
REMARK  188  A    between atoms: _473  and  _475
REMARK  189  A    between atoms: _475  and  _476
REMARK  190  A    between atoms: _475  and  _478
REMARK  191  A    between atoms: _478  and  _479
REMARK  192  A    between atoms: _479  and  _480
REMARK  193  A    between atoms: _483  and  _485
REMARK  194  A    between atoms: _485  and  _486
REMARK  195  A    between atoms: _488  and  _490
REMARK  196  A    between atoms: _490  and  _491
REMARK  197  A    between atoms: _490  and  _493
REMARK  198  A    between atoms: _493  and  _494
REMARK  199  A    between atoms: _495  and  _497
REMARK  200  A    between atoms: _497  and  _498
REMARK  201  A    between atoms: _497  and  _500
REMARK  202  A    between atoms: _500  and  _501
REMARK  203  A    between atoms: _504  and  _506
REMARK  204  A    between atoms: _506  and  _507
REMARK  205  A    between atoms: _506  and  _509
REMARK  206  A    between atoms: _509  and  _510
REMARK  207  A    between atoms: _510  and  _511
REMARK  208  A    between atoms: _511  and  _512
REMARK  209  A    between atoms: _521  and  _523
REMARK  210  A    between atoms: _523  and  _524
REMARK  211  A    between atoms: _523  and  _526
REMARK  212  A    between atoms: _526  and  _527
REMARK  213  A    between atoms: _527  and  _528
REMARK  214  A    between atoms: _528  and  _529
REMARK  215  A    between atoms: _529  and  _530
REMARK  216  A    between atoms: _534  and  _536
REMARK  217  A    between atoms: _536  and  _537
REMARK  218  A    between atoms: _536  and  _539
REMARK  219  A    between atoms: _539  and  _540
REMARK  220  A    between atoms: _545  and  _546
REMARK  221  A    between atoms: _548  and  _550
REMARK  222  A    between atoms: _550  and  _551
REMARK  223  A    between atoms: _553  and  _555
REMARK  224  A    between atoms: _555  and  _556
REMARK  225  A    between atoms: _555  and  _558
REMARK  226  A    between atoms: _558  and  _559
REMARK  227  A    between atoms: _565  and  _567
REMARK  228  A    between atoms: _567  and  _568
REMARK  229  A    between atoms: _567  and  _570
REMARK  230  A    between atoms: _570  and  _571
REMARK  231  A    between atoms: _576  and  _577
REMARK  232  A    between atoms: _579  and  _581
REMARK  233  A    between atoms: _581  and  _582
REMARK  234  A    between atoms: _581  and  _584
REMARK  235  A    between atoms: _584  and  _585
REMARK                            x       y       z     vdW  Elec       q    Type
REMARK                         _______ _______ _______ _____ _____    ______ ____
ROOT
ATOM      1  O   HOH     1       8.418  -8.336  26.914  0.00  0.00    +0.000 OA
ENDROOT
TORSDOF 0
REMARK  Name = ../refined-set-2016/1z71/1z71_pocket.pdb
REMARK  235 active torsions:
REMARK  status: ('A' for Active; 'I' for Inactive)
REMARK    1  A    between atoms: _1  and  _5
REMARK    2  A    between atoms: _5  and  _6
REMARK    3  A    between atoms: _5  and  _8
REMARK    4  A    between atoms: _8  and  _9
REMARK    5  A    between atoms: _12  and  _14
REMARK    6  A    between atoms: _14  and  _15
REMARK    7  A    between atoms: _14  and  _17
REMARK    8  A    between atoms: _20  and  _22
REMARK    9  A    between atoms: _22  and  _23
REMARK   10  A    between atoms: _22  and  _25
REMARK   11  A    between atoms: _25  and  _26
REMARK   12  A    between atoms: _26  and  _61
REMARK   13  A    between atoms: _27  and  _29
REMARK   14  A    between atoms: _29  and  _30
REMARK   15  A    between atoms: _32  and  _34
REMARK   16  A    between atoms: _34  and  _35
REMARK   17  A    between atoms: _38  and  _40
REMARK   18  A    between atoms: _40  and  _41
REMARK   19  A    between atoms: _44  and  _46
REMARK   20  A    between atoms: _46  and  _47
REMARK   21  A    between atoms: _46  and  _49
REMARK   22  A    between atoms: _49  and  _50
REMARK   23  A    between atoms: _55  and  _57
REMARK   24  A    between atoms: _57  and  _58
REMARK   25  A    between atoms: _57  and  _60
REMARK   26  A    between atoms: _60  and  _61
REMARK   27  A    between atoms: _62  and  _64
REMARK   28  A    between atoms: _64  and  _65
REMARK   29  A    between atoms: _64  and  _67
REMARK   30  A    between atoms: _67  and  _68
REMARK   31  A    between atoms: _71  and  _73
REMARK   32  A    between atoms: _73  and  _74
REMARK   33  A    between atoms: _73  and  _76
REMARK   34  A    between atoms: _76  and  _77
REMARK   35  A    between atoms: _82  and  _83
REMARK   36  A    between atoms: _86  and  _87
REMARK   37  A    between atoms: _92  and  _94
REMARK   38  A    between atoms: _94  and  _95
REMARK   39  A    between atoms: _94  and  _97
REMARK   40  A    between atoms: _97  and  _98
REMARK   41  A    between atoms: _108  and  _110
REMARK   42  A    between atoms: _110  and  _111
REMARK   43  A    between atoms: _110  and  _113
REMARK   44  A    between atoms: _113  and  _114
REMARK   45  A    between atoms: _114  and  _115
REMARK   46  A    between atoms: _115  and  _116
REMARK   47  A    between atoms: _116  and  _117
REMARK   48  A    between atoms: _121  and  _123
REMARK   49  A    between atoms: _123  and  _124
REMARK   50  A    between atoms: _123  and  _126
REMARK   51  A    between atoms: _126  and  _127
REMARK   52  A    between atoms: _132  and  _133
REMARK   53  A    between atoms: _135  and  _137
REMARK   54  A    between atoms: _137  and  _138
REMARK   55  A    between atoms: _137  and  _140
REMARK   56  A    between atoms: _140  and  _141
REMARK   57  A    between atoms: _146  and  _148
REMARK   58  A    between atoms: _148  and  _149
REMARK   59  A    between atoms: _148  and  _151
REMARK   60  A    between atoms: _151  and  _152
REMARK   61  A    between atoms: _162  and  _164
REMARK   62  A    between atoms: _164  and  _165
REMARK   63  A    between atoms: _164  and  _167
REMARK   64  A    between atoms: _167  and  _168
REMARK   65  A    between atoms: _168  and  _169
REMARK   66  A    between atoms: _169  and  _170
REMARK   67  A    between atoms: _179  and  _181
REMARK   68  A    between atoms: _181  and  _182
REMARK   69  A    between atoms: _181  and  _184
REMARK   70  A    between atoms: _184  and  _185
REMARK   71  A    between atoms: _185  and  _186
REMARK   72  A    between atoms: _189  and  _191
REMARK   73  A    between atoms: _191  and  _192
REMARK   74  A    between atoms: _191  and  _194
REMARK   75  A    between atoms: _194  and  _195
REMARK   76  A    between atoms: _200  and  _202
REMARK   77  A    between atoms: _202  and  _203
REMARK   78  A    between atoms: _202  and  _205
REMARK   79  A    between atoms: _205  and  _206
REMARK   80  A    between atoms: _209  and  _211
REMARK   81  A    between atoms: _211  and  _212
REMARK   82  A    between atoms: _211  and  _214
REMARK   83  A    between atoms: _214  and  _215
REMARK   84  A    between atoms: _218  and  _220
REMARK   85  A    between atoms: _220  and  _221
REMARK   86  A    between atoms: _220  and  _223
REMARK   87  A    between atoms: _223  and  _224
REMARK   88  A    between atoms: _227  and  _229
REMARK   89  A    between atoms: _229  and  _230
REMARK   90  A    between atoms: _229  and  _232
REMARK   91  A    between atoms: _235  and  _237
REMARK   92  A    between atoms: _237  and  _238
REMARK   93  A    between atoms: _240  and  _242
REMARK   94  A    between atoms: _242  and  _243
REMARK   95  A    between atoms: _242  and  _245
REMARK   96  A    between atoms: _245  and  _246
REMARK   97  A    between atoms: _251  and  _253
REMARK   98  A    between atoms: _253  and  _254
REMARK   99  A    between atoms: _253  and  _256
REMARK  100  A    between atoms: _256  and  _257
REMARK  101  A    between atoms: _260  and  _262
REMARK  102  A    between atoms: _262  and  _263
REMARK  103  A    between atoms: _262  and  _265
REMARK  104  A    between atoms: _265  and  _266
REMARK  105  A    between atoms: _269  and  _271
REMARK  106  A    between atoms: _271  and  _272
REMARK  107  A    between atoms: _271  and  _274
REMARK  108  A    between atoms: _274  and  _275
REMARK  109  A    between atoms: _275  and  _276
REMARK  110  A    between atoms: _276  and  _277
REMARK  111  A    between atoms: _286  and  _288
REMARK  112  A    between atoms: _288  and  _289
REMARK  113  A    between atoms: _288  and  _291
REMARK  114  A    between atoms: _291  and  _292
REMARK  115  A    between atoms: _295  and  _297
REMARK  116  A    between atoms: _297  and  _298
REMARK  117  A    between atoms: _297  and  _300
REMARK  118  A    between atoms: _300  and  _301
REMARK  119  A    between atoms: _301  and  _302
REMARK  120  A    between atoms: _302  and  _303
REMARK  121  A    between atoms: _312  and  _314
REMARK  122  A    between atoms: _314  and  _315
REMARK  123  A    between atoms: _314  and  _317
REMARK  124  A    between atoms: _317  and  _318
REMARK  125  A    between atoms: _318  and  _319
REMARK  126  A    between atoms: _321  and  _323
REMARK  127  A    between atoms: _323  and  _324
REMARK  128  A    between atoms: _323  and  _326
REMARK  129  A    between atoms: _326  and  _327
REMARK  130  A    between atoms: _333  and  _335
REMARK  131  A    between atoms: _335  and  _336
REMARK  132  A    between atoms: _335  and  _338
REMARK  133  A    between atoms: _340  and  _342
REMARK  134  A    between atoms: _342  and  _343
REMARK  135  A    between atoms: _346  and  _348
REMARK  136  A    between atoms: _348  and  _349
REMARK  137  A    between atoms: _351  and  _353
REMARK  138  A    between atoms: _353  and  _354
REMARK  139  A    between atoms: _353  and  _356
REMARK  140  A    between atoms: _356  and  _357
REMARK  141  A    between atoms: _360  and  _362
REMARK  142  A    between atoms: _362  and  _363
REMARK  143  A    between atoms: _366  and  _368
REMARK  144  A    between atoms: _368  and  _369
REMARK  145  A    between atoms: _368  and  _371
REMARK  146  A    between atoms: _371  and  _372
REMARK  147  A    between atoms: _372  and  _494
REMARK  148  A    between atoms: _373  and  _375
REMARK  149  A    between atoms: _375  and  _376
REMARK  150  A    between atoms: _375  and  _378
REMARK  151  A    between atoms: _378  and  _379
REMARK  152  A    between atoms: _379  and  _380
REMARK  153  A    between atoms: _383  and  _385
REMARK  154  A    between atoms: _385  and  _386
REMARK  155  A    between atoms: _388  and  _390
REMARK  156  A    between atoms: _390  and  _391
REMARK  157  A    between atoms: _390  and  _393
REMARK  158  A    between atoms: _393  and  _394
REMARK  159  A    between atoms: _397  and  _399
REMARK  160  A    between atoms: _399  and  _400
REMARK  161  A    between atoms: _399  and  _402
REMARK  162  A    between atoms: _402  and  _403
REMARK  163  A    between atoms: _405  and  _407
REMARK  164  A    between atoms: _407  and  _408
REMARK  165  A    between atoms: _410  and  _412
REMARK  166  A    between atoms: _412  and  _413
REMARK  167  A    between atoms: _415  and  _417
REMARK  168  A    between atoms: _417  and  _418
REMARK  169  A    between atoms: _417  and  _420
REMARK  170  A    between atoms: _420  and  _421
REMARK  171  A    between atoms: _427  and  _429
REMARK  172  A    between atoms: _429  and  _430
REMARK  173  A    between atoms: _429  and  _432
REMARK  174  A    between atoms: _432  and  _433
REMARK  175  A    between atoms: _436  and  _438
REMARK  176  A    between atoms: _438  and  _439
REMARK  177  A    between atoms: _438  and  _441
REMARK  178  A    between atoms: _444  and  _446
REMARK  179  A    between atoms: _446  and  _447
REMARK  180  A    between atoms: _446  and  _449
REMARK  181  A    between atoms: _449  and  _450
REMARK  182  A    between atoms: _452  and  _454
REMARK  183  A    between atoms: _454  and  _455
REMARK  184  A    between atoms: _454  and  _457
REMARK  185  A    between atoms: _457  and  _458
REMARK  186  A    between atoms: _468  and  _470
REMARK  187  A    between atoms: _470  and  _471
REMARK  188  A    between atoms: _473  and  _475
REMARK  189  A    between atoms: _475  and  _476
REMARK  190  A    between atoms: _475  and  _478
REMARK  191  A    between atoms: _478  and  _479
REMARK  192  A    between atoms: _479  and  _480
REMARK  193  A    between atoms: _483  and  _485
REMARK  194  A    between atoms: _485  and  _486
REMARK  195  A    between atoms: _488  and  _490
REMARK  196  A    between atoms: _490  and  _491
REMARK  197  A    between atoms: _490  and  _493
REMARK  198  A    between atoms: _493  and  _494
REMARK  199  A    between atoms: _495  and  _497
REMARK  200  A    between atoms: _497  and  _498
REMARK  201  A    between atoms: _497  and  _500
REMARK  202  A    between atoms: _500  and  _501
REMARK  203  A    between atoms: _504  and  _506
REMARK  204  A    between atoms: _506  and  _507
REMARK  205  A    between atoms: _506  and  _509
REMARK  206  A    between atoms: _509  and  _510
REMARK  207  A    between atoms: _510  and  _511
REMARK  208  A    between atoms: _511  and  _512
REMARK  209  A    between atoms: _521  and  _523
REMARK  210  A    between atoms: _523  and  _524
REMARK  211  A    between atoms: _523  and  _526
REMARK  212  A    between atoms: _526  and  _527
REMARK  213  A    between atoms: _527  and  _528
REMARK  214  A    between atoms: _528  and  _529
REMARK  215  A    between atoms: _529  and  _530
REMARK  216  A    between atoms: _534  and  _536
REMARK  217  A    between atoms: _536  and  _537
REMARK  218  A    between atoms: _536  and  _539
REMARK  219  A    between atoms: _539  and  _540
REMARK  220  A    between atoms: _545  and  _546
REMARK  221  A    between atoms: _548  and  _550
REMARK  222  A    between atoms: _550  and  _551
REMARK  223  A    between atoms: _553  and  _555
REMARK  224  A    between atoms: _555  and  _556
REMARK  225  A    between atoms: _555  and  _558
REMARK  226  A    between atoms: _558  and  _559
REMARK  227  A    between atoms: _565  and  _567
REMARK  228  A    between atoms: _567  and  _568
REMARK  229  A    between atoms: _567  and  _570
REMARK  230  A    between atoms: _570  and  _571
REMARK  231  A    between atoms: _576  and  _577
REMARK  232  A    between atoms: _579  and  _581
REMARK  233  A    between atoms: _581  and  _582
REMARK  234  A    between atoms: _581  and  _584
REMARK  235  A    between atoms: _584  and  _585
REMARK                            x       y       z     vdW  Elec       q    Type
REMARK                         _______ _______ _______ _____ _____    ______ ____
ROOT
ATOM      1  O   HOH     1      12.234 -16.181  21.527  0.00  0.00    +0.000 OA
ENDROOT
TORSDOF 0
REMARK  Name = ../refined-set-2016/1z71/1z71_pocket.pdb
REMARK  235 active torsions:
REMARK  status: ('A' for Active; 'I' for Inactive)
REMARK    1  A    between atoms: _1  and  _5
REMARK    2  A    between atoms: _5  and  _6
REMARK    3  A    between atoms: _5  and  _8
REMARK    4  A    between atoms: _8  and  _9
REMARK    5  A    between atoms: _12  and  _14
REMARK    6  A    between atoms: _14  and  _15
REMARK    7  A    between atoms: _14  and  _17
REMARK    8  A    between atoms: _20  and  _22
REMARK    9  A    between atoms: _22  and  _23
REMARK   10  A    between atoms: _22  and  _25
REMARK   11  A    between atoms: _25  and  _26
REMARK   12  A    between atoms: _26  and  _61
REMARK   13  A    between atoms: _27  and  _29
REMARK   14  A    between atoms: _29  and  _30
REMARK   15  A    between atoms: _32  and  _34
REMARK   16  A    between atoms: _34  and  _35
REMARK   17  A    between atoms: _38  and  _40
REMARK   18  A    between atoms: _40  and  _41
REMARK   19  A    between atoms: _44  and  _46
REMARK   20  A    between atoms: _46  and  _47
REMARK   21  A    between atoms: _46  and  _49
REMARK   22  A    between atoms: _49  and  _50
REMARK   23  A    between atoms: _55  and  _57
REMARK   24  A    between atoms: _57  and  _58
REMARK   25  A    between atoms: _57  and  _60
REMARK   26  A    between atoms: _60  and  _61
REMARK   27  A    between atoms: _62  and  _64
REMARK   28  A    between atoms: _64  and  _65
REMARK   29  A    between atoms: _64  and  _67
REMARK   30  A    between atoms: _67  and  _68
REMARK   31  A    between atoms: _71  and  _73
REMARK   32  A    between atoms: _73  and  _74
REMARK   33  A    between atoms: _73  and  _76
REMARK   34  A    between atoms: _76  and  _77
REMARK   35  A    between atoms: _82  and  _83
REMARK   36  A    between atoms: _86  and  _87
REMARK   37  A    between atoms: _92  and  _94
REMARK   38  A    between atoms: _94  and  _95
REMARK   39  A    between atoms: _94  and  _97
REMARK   40  A    between atoms: _97  and  _98
REMARK   41  A    between atoms: _108  and  _110
REMARK   42  A    between atoms: _110  and  _111
REMARK   43  A    between atoms: _110  and  _113
REMARK   44  A    between atoms: _113  and  _114
REMARK   45  A    between atoms: _114  and  _115
REMARK   46  A    between atoms: _115  and  _116
REMARK   47  A    between atoms: _116  and  _117
REMARK   48  A    between atoms: _121  and  _123
REMARK   49  A    between atoms: _123  and  _124
REMARK   50  A    between atoms: _123  and  _126
REMARK   51  A    between atoms: _126  and  _127
REMARK   52  A    between atoms: _132  and  _133
REMARK   53  A    between atoms: _135  and  _137
REMARK   54  A    between atoms: _137  and  _138
REMARK   55  A    between atoms: _137  and  _140
REMARK   56  A    between atoms: _140  and  _141
REMARK   57  A    between atoms: _146  and  _148
REMARK   58  A    between atoms: _148  and  _149
REMARK   59  A    between atoms: _148  and  _151
REMARK   60  A    between atoms: _151  and  _152
REMARK   61  A    between atoms: _162  and  _164
REMARK   62  A    between atoms: _164  and  _165
REMARK   63  A    between atoms: _164  and  _167
REMARK   64  A    between atoms: _167  and  _168
REMARK   65  A    between atoms: _168  and  _169
REMARK   66  A    between atoms: _169  and  _170
REMARK   67  A    between atoms: _179  and  _181
REMARK   68  A    between atoms: _181  and  _182
REMARK   69  A    between atoms: _181  and  _184
REMARK   70  A    between atoms: _184  and  _185
REMARK   71  A    between atoms: _185  and  _186
REMARK   72  A    between atoms: _189  and  _191
REMARK   73  A    between atoms: _191  and  _192
REMARK   74  A    between atoms: _191  and  _194
REMARK   75  A    between atoms: _194  and  _195
REMARK   76  A    between atoms: _200  and  _202
REMARK   77  A    between atoms: _202  and  _203
REMARK   78  A    between atoms: _202  and  _205
REMARK   79  A    between atoms: _205  and  _206
REMARK   80  A    between atoms: _209  and  _211
REMARK   81  A    between atoms: _211  and  _212
REMARK   82  A    between atoms: _211  and  _214
REMARK   83  A    between atoms: _214  and  _215
REMARK   84  A    between atoms: _218  and  _220
REMARK   85  A    between atoms: _220  and  _221
REMARK   86  A    between atoms: _220  and  _223
REMARK   87  A    between atoms: _223  and  _224
REMARK   88  A    between atoms: _227  and  _229
REMARK   89  A    between atoms: _229  and  _230
REMARK   90  A    between atoms: _229  and  _232
REMARK   91  A    between atoms: _235  and  _237
REMARK   92  A    between atoms: _237  and  _238
REMARK   93  A    between atoms: _240  and  _242
REMARK   94  A    between atoms: _242  and  _243
REMARK   95  A    between atoms: _242  and  _245
REMARK   96  A    between atoms: _245  and  _246
REMARK   97  A    between atoms: _251  and  _253
REMARK   98  A    between atoms: _253  and  _254
REMARK   99  A    between atoms: _253  and  _256
REMARK  100  A    between atoms: _256  and  _257
REMARK  101  A    between atoms: _260  and  _262
REMARK  102  A    between atoms: _262  and  _263
REMARK  103  A    between atoms: _262  and  _265
REMARK  104  A    between atoms: _265  and  _266
REMARK  105  A    between atoms: _269  and  _271
REMARK  106  A    between atoms: _271  and  _272
REMARK  107  A    between atoms: _271  and  _274
REMARK  108  A    between atoms: _274  and  _275
REMARK  109  A    between atoms: _275  and  _276
REMARK  110  A    between atoms: _276  and  _277
REMARK  111  A    between atoms: _286  and  _288
REMARK  112  A    between atoms: _288  and  _289
REMARK  113  A    between atoms: _288  and  _291
REMARK  114  A    between atoms: _291  and  _292
REMARK  115  A    between atoms: _295  and  _297
REMARK  116  A    between atoms: _297  and  _298
REMARK  117  A    between atoms: _297  and  _300
REMARK  118  A    between atoms: _300  and  _301
REMARK  119  A    between atoms: _301  and  _302
REMARK  120  A    between atoms: _302  and  _303
REMARK  121  A    between atoms: _312  and  _314
REMARK  122  A    between atoms: _314  and  _315
REMARK  123  A    between atoms: _314  and  _317
REMARK  124  A    between atoms: _317  and  _318
REMARK  125  A    between atoms: _318  and  _319
REMARK  126  A    between atoms: _321  and  _323
REMARK  127  A    between atoms: _323  and  _324
REMARK  128  A    between atoms: _323  and  _326
REMARK  129  A    between atoms: _326  and  _327
REMARK  130  A    between atoms: _333  and  _335
REMARK  131  A    between atoms: _335  and  _336
REMARK  132  A    between atoms: _335  and  _338
REMARK  133  A    between atoms: _340  and  _342
REMARK  134  A    between atoms: _342  and  _343
REMARK  135  A    between atoms: _346  and  _348
REMARK  136  A    between atoms: _348  and  _349
REMARK  137  A    between atoms: _351  and  _353
REMARK  138  A    between atoms: _353  and  _354
REMARK  139  A    between atoms: _353  and  _356
REMARK  140  A    between atoms: _356  and  _357
REMARK  141  A    between atoms: _360  and  _362
REMARK  142  A    between atoms: _362  and  _363
REMARK  143  A    between atoms: _366  and  _368
REMARK  144  A    between atoms: _368  and  _369
REMARK  145  A    between atoms: _368  and  _371
REMARK  146  A    between atoms: _371  and  _372
REMARK  147  A    between atoms: _372  and  _494
REMARK  148  A    between atoms: _373  and  _375
REMARK  149  A    between atoms: _375  and  _376
REMARK  150  A    between atoms: _375  and  _378
REMARK  151  A    between atoms: _378  and  _379
REMARK  152  A    between atoms: _379  and  _380
REMARK  153  A    between atoms: _383  and  _385
REMARK  154  A    between atoms: _385  and  _386
REMARK  155  A    between atoms: _388  and  _390
REMARK  156  A    between atoms: _390  and  _391
REMARK  157  A    between atoms: _390  and  _393
REMARK  158  A    between atoms: _393  and  _394
REMARK  159  A    between atoms: _397  and  _399
REMARK  160  A    between atoms: _399  and  _400
REMARK  161  A    between atoms: _399  and  _402
REMARK  162  A    between atoms: _402  and  _403
REMARK  163  A    between atoms: _405  and  _407
REMARK  164  A    between atoms: _407  and  _408
REMARK  165  A    between atoms: _410  and  _412
REMARK  166  A    between atoms: _412  and  _413
REMARK  167  A    between atoms: _415  and  _417
REMARK  168  A    between atoms: _417  and  _418
REMARK  169  A    between atoms: _417  and  _420
REMARK  170  A    between atoms: _420  and  _421
REMARK  171  A    between atoms: _427  and  _429
REMARK  172  A    between atoms: _429  and  _430
REMARK  173  A    between atoms: _429  and  _432
REMARK  174  A    between atoms: _432  and  _433
REMARK  175  A    between atoms: _436  and  _438
REMARK  176  A    between atoms: _438  and  _439
REMARK  177  A    between atoms: _438  and  _441
REMARK  178  A    between atoms: _444  and  _446
REMARK  179  A    between atoms: _446  and  _447
REMARK  180  A    between atoms: _446  and  _449
REMARK  181  A    between atoms: _449  and  _450
REMARK  182  A    between atoms: _452  and  _454
REMARK  183  A    between atoms: _454  and  _455
REMARK  184  A    between atoms: _454  and  _457
REMARK  185  A    between atoms: _457  and  _458
REMARK  186  A    between atoms: _468  and  _470
REMARK  187  A    between atoms: _470  and  _471
REMARK  188  A    between atoms: _473  and  _475
REMARK  189  A    between atoms: _475  and  _476
REMARK  190  A    between atoms: _475  and  _478
REMARK  191  A    between atoms: _478  and  _479
REMARK  192  A    between atoms: _479  and  _480
REMARK  193  A    between atoms: _483  and  _485
REMARK  194  A    between atoms: _485  and  _486
REMARK  195  A    between atoms: _488  and  _490
REMARK  196  A    between atoms: _490  and  _491
REMARK  197  A    between atoms: _490  and  _493
REMARK  198  A    between atoms: _493  and  _494
REMARK  199  A    between atoms: _495  and  _497
REMARK  200  A    between atoms: _497  and  _498
REMARK  201  A    between atoms: _497  and  _500
REMARK  202  A    between atoms: _500  and  _501
REMARK  203  A    between atoms: _504  and  _506
REMARK  204  A    between atoms: _506  and  _507
REMARK  205  A    between atoms: _506  and  _509
REMARK  206  A    between atoms: _509  and  _510
REMARK  207  A    between atoms: _510  and  _511
REMARK  208  A    between atoms: _511  and  _512
REMARK  209  A    between atoms: _521  and  _523
REMARK  210  A    between atoms: _523  and  _524
REMARK  211  A    between atoms: _523  and  _526
REMARK  212  A    between atoms: _526  and  _527
REMARK  213  A    between atoms: _527  and  _528
REMARK  214  A    between atoms: _528  and  _529
REMARK  215  A    between atoms: _529  and  _530
REMARK  216  A    between atoms: _534  and  _536
REMARK  217  A    between atoms: _536  and  _537
REMARK  218  A    between atoms: _536  and  _539
REMARK  219  A    between atoms: _539  and  _540
REMARK  220  A    between atoms: _545  and  _546
REMARK  221  A    between atoms: _548  and  _550
REMARK  222  A    between atoms: _550  and  _551
REMARK  223  A    between atoms: _553  and  _555
REMARK  224  A    between atoms: _555  and  _556
REMARK  225  A    between atoms: _555  and  _558
REMARK  226  A    between atoms: _558  and  _559
REMARK  227  A    between atoms: _565  and  _567
REMARK  228  A    between atoms: _567  and  _568
REMARK  229  A    between atoms: _567  and  _570
REMARK  230  A    between atoms: _570  and  _571
REMARK  231  A    between atoms: _576  and  _577
REMARK  232  A    between atoms: _579  and  _581
REMARK  233  A    between atoms: _581  and  _582
REMARK  234  A    between atoms: _581  and  _584
REMARK  235  A    between atoms: _584  and  _585
REMARK                            x       y       z     vdW  Elec       q    Type
REMARK                         _______ _______ _______ _____ _____    ______ ____
ROOT
ATOM      1  O   HOH     1       6.837 -13.319  28.107  0.00  0.00    +0.000 OA
ENDROOT
TORSDOF 0
REMARK  Name = ../refined-set-2016/1z71/1z71_pocket.pdb
REMARK  235 active torsions:
REMARK  status: ('A' for Active; 'I' for Inactive)
REMARK    1  A    between atoms: _1  and  _5
REMARK    2  A    between atoms: _5  and  _6
REMARK    3  A    between atoms: _5  and  _8
REMARK    4  A    between atoms: _8  and  _9
REMARK    5  A    between atoms: _12  and  _14
REMARK    6  A    between atoms: _14  and  _15
REMARK    7  A    between atoms: _14  and  _17
REMARK    8  A    between atoms: _20  and  _22
REMARK    9  A    between atoms: _22  and  _23
REMARK   10  A    between atoms: _22  and  _25
REMARK   11  A    between atoms: _25  and  _26
REMARK   12  A    between atoms: _26  and  _61
REMARK   13  A    between atoms: _27  and  _29
REMARK   14  A    between atoms: _29  and  _30
REMARK   15  A    between atoms: _32  and  _34
REMARK   16  A    between atoms: _34  and  _35
REMARK   17  A    between atoms: _38  and  _40
REMARK   18  A    between atoms: _40  and  _41
REMARK   19  A    between atoms: _44  and  _46
REMARK   20  A    between atoms: _46  and  _47
REMARK   21  A    between atoms: _46  and  _49
REMARK   22  A    between atoms: _49  and  _50
REMARK   23  A    between atoms: _55  and  _57
REMARK   24  A    between atoms: _57  and  _58
REMARK   25  A    between atoms: _57  and  _60
REMARK   26  A    between atoms: _60  and  _61
REMARK   27  A    between atoms: _62  and  _64
REMARK   28  A    between atoms: _64  and  _65
REMARK   29  A    between atoms: _64  and  _67
REMARK   30  A    between atoms: _67  and  _68
REMARK   31  A    between atoms: _71  and  _73
REMARK   32  A    between atoms: _73  and  _74
REMARK   33  A    between atoms: _73  and  _76
REMARK   34  A    between atoms: _76  and  _77
REMARK   35  A    between atoms: _82  and  _83
REMARK   36  A    between atoms: _86  and  _87
REMARK   37  A    between atoms: _92  and  _94
REMARK   38  A    between atoms: _94  and  _95
REMARK   39  A    between atoms: _94  and  _97
REMARK   40  A    between atoms: _97  and  _98
REMARK   41  A    between atoms: _108  and  _110
REMARK   42  A    between atoms: _110  and  _111
REMARK   43  A    between atoms: _110  and  _113
REMARK   44  A    between atoms: _113  and  _114
REMARK   45  A    between atoms: _114  and  _115
REMARK   46  A    between atoms: _115  and  _116
REMARK   47  A    between atoms: _116  and  _117
REMARK   48  A    between atoms: _121  and  _123
REMARK   49  A    between atoms: _123  and  _124
REMARK   50  A    between atoms: _123  and  _126
REMARK   51  A    between atoms: _126  and  _127
REMARK   52  A    between atoms: _132  and  _133
REMARK   53  A    between atoms: _135  and  _137
REMARK   54  A    between atoms: _137  and  _138
REMARK   55  A    between atoms: _137  and  _140
REMARK   56  A    between atoms: _140  and  _141
REMARK   57  A    between atoms: _146  and  _148
REMARK   58  A    between atoms: _148  and  _149
REMARK   59  A    between atoms: _148  and  _151
REMARK   60  A    between atoms: _151  and  _152
REMARK   61  A    between atoms: _162  and  _164
REMARK   62  A    between atoms: _164  and  _165
REMARK   63  A    between atoms: _164  and  _167
REMARK   64  A    between atoms: _167  and  _168
REMARK   65  A    between atoms: _168  and  _169
REMARK   66  A    between atoms: _169  and  _170
REMARK   67  A    between atoms: _179  and  _181
REMARK   68  A    between atoms: _181  and  _182
REMARK   69  A    between atoms: _181  and  _184
REMARK   70  A    between atoms: _184  and  _185
REMARK   71  A    between atoms: _185  and  _186
REMARK   72  A    between atoms: _189  and  _191
REMARK   73  A    between atoms: _191  and  _192
REMARK   74  A    between atoms: _191  and  _194
REMARK   75  A    between atoms: _194  and  _195
REMARK   76  A    between atoms: _200  and  _202
REMARK   77  A    between atoms: _202  and  _203
REMARK   78  A    between atoms: _202  and  _205
REMARK   79  A    between atoms: _205  and  _206
REMARK   80  A    between atoms: _209  and  _211
REMARK   81  A    between atoms: _211  and  _212
REMARK   82  A    between atoms: _211  and  _214
REMARK   83  A    between atoms: _214  and  _215
REMARK   84  A    between atoms: _218  and  _220
REMARK   85  A    between atoms: _220  and  _221
REMARK   86  A    between atoms: _220  and  _223
REMARK   87  A    between atoms: _223  and  _224
REMARK   88  A    between atoms: _227  and  _229
REMARK   89  A    between atoms: _229  and  _230
REMARK   90  A    between atoms: _229  and  _232
REMARK   91  A    between atoms: _235  and  _237
REMARK   92  A    between atoms: _237  and  _238
REMARK   93  A    between atoms: _240  and  _242
REMARK   94  A    between atoms: _242  and  _243
REMARK   95  A    between atoms: _242  and  _245
REMARK   96  A    between atoms: _245  and  _246
REMARK   97  A    between atoms: _251  and  _253
REMARK   98  A    between atoms: _253  and  _254
REMARK   99  A    between atoms: _253  and  _256
REMARK  100  A    between atoms: _256  and  _257
REMARK  101  A    between atoms: _260  and  _262
REMARK  102  A    between atoms: _262  and  _263
REMARK  103  A    between atoms: _262  and  _265
REMARK  104  A    between atoms: _265  and  _266
REMARK  105  A    between atoms: _269  and  _271
REMARK  106  A    between atoms: _271  and  _272
REMARK  107  A    between atoms: _271  and  _274
REMARK  108  A    between atoms: _274  and  _275
REMARK  109  A    between atoms: _275  and  _276
REMARK  110  A    between atoms: _276  and  _277
REMARK  111  A    between atoms: _286  and  _288
REMARK  112  A    between atoms: _288  and  _289
REMARK  113  A    between atoms: _288  and  _291
REMARK  114  A    between atoms: _291  and  _292
REMARK  115  A    between atoms: _295  and  _297
REMARK  116  A    between atoms: _297  and  _298
REMARK  117  A    between atoms: _297  and  _300
REMARK  118  A    between atoms: _300  and  _301
REMARK  119  A    between atoms: _301  and  _302
REMARK  120  A    between atoms: _302  and  _303
REMARK  121  A    between atoms: _312  and  _314
REMARK  122  A    between atoms: _314  and  _315
REMARK  123  A    between atoms: _314  and  _317
REMARK  124  A    between atoms: _317  and  _318
REMARK  125  A    between atoms: _318  and  _319
REMARK  126  A    between atoms: _321  and  _323
REMARK  127  A    between atoms: _323  and  _324
REMARK  128  A    between atoms: _323  and  _326
REMARK  129  A    between atoms: _326  and  _327
REMARK  130  A    between atoms: _333  and  _335
REMARK  131  A    between atoms: _335  and  _336
REMARK  132  A    between atoms: _335  and  _338
REMARK  133  A    between atoms: _340  and  _342
REMARK  134  A    between atoms: _342  and  _343
REMARK  135  A    between atoms: _346  and  _348
REMARK  136  A    between atoms: _348  and  _349
REMARK  137  A    between atoms: _351  and  _353
REMARK  138  A    between atoms: _353  and  _354
REMARK  139  A    between atoms: _353  and  _356
REMARK  140  A    between atoms: _356  and  _357
REMARK  141  A    between atoms: _360  and  _362
REMARK  142  A    between atoms: _362  and  _363
REMARK  143  A    between atoms: _366  and  _368
REMARK  144  A    between atoms: _368  and  _369
REMARK  145  A    between atoms: _368  and  _371
REMARK  146  A    between atoms: _371  and  _372
REMARK  147  A    between atoms: _372  and  _494
REMARK  148  A    between atoms: _373  and  _375
REMARK  149  A    between atoms: _375  and  _376
REMARK  150  A    between atoms: _375  and  _378
REMARK  151  A    between atoms: _378  and  _379
REMARK  152  A    between atoms: _379  and  _380
REMARK  153  A    between atoms: _383  and  _385
REMARK  154  A    between atoms: _385  and  _386
REMARK  155  A    between atoms: _388  and  _390
REMARK  156  A    between atoms: _390  and  _391
REMARK  157  A    between atoms: _390  and  _393
REMARK  158  A    between atoms: _393  and  _394
REMARK  159  A    between atoms: _397  and  _399
REMARK  160  A    between atoms: _399  and  _400
REMARK  161  A    between atoms: _399  and  _402
REMARK  162  A    between atoms: _402  and  _403
REMARK  163  A    between atoms: _405  and  _407
REMARK  164  A    between atoms: _407  and  _408
REMARK  165  A    between atoms: _410  and  _412
REMARK  166  A    between atoms: _412  and  _413
REMARK  167  A    between atoms: _415  and  _417
REMARK  168  A    between atoms: _417  and  _418
REMARK  169  A    between atoms: _417  and  _420
REMARK  170  A    between atoms: _420  and  _421
REMARK  171  A    between atoms: _427  and  _429
REMARK  172  A    between atoms: _429  and  _430
REMARK  173  A    between atoms: _429  and  _432
REMARK  174  A    between atoms: _432  and  _433
REMARK  175  A    between atoms: _436  and  _438
REMARK  176  A    between atoms: _438  and  _439
REMARK  177  A    between atoms: _438  and  _441
REMARK  178  A    between atoms: _444  and  _446
REMARK  179  A    between atoms: _446  and  _447
REMARK  180  A    between atoms: _446  and  _449
REMARK  181  A    between atoms: _449  and  _450
REMARK  182  A    between atoms: _452  and  _454
REMARK  183  A    between atoms: _454  and  _455
REMARK  184  A    between atoms: _454  and  _457
REMARK  185  A    between atoms: _457  and  _458
REMARK  186  A    between atoms: _468  and  _470
REMARK  187  A    between atoms: _470  and  _471
REMARK  188  A    between atoms: _473  and  _475
REMARK  189  A    between atoms: _475  and  _476
REMARK  190  A    between atoms: _475  and  _478
REMARK  191  A    between atoms: _478  and  _479
REMARK  192  A    between atoms: _479  and  _480
REMARK  193  A    between atoms: _483  and  _485
REMARK  194  A    between atoms: _485  and  _486
REMARK  195  A    between atoms: _488  and  _490
REMARK  196  A    between atoms: _490  and  _491
REMARK  197  A    between atoms: _490  and  _493
REMARK  198  A    between atoms: _493  and  _494
REMARK  199  A    between atoms: _495  and  _497
REMARK  200  A    between atoms: _497  and  _498
REMARK  201  A    between atoms: _497  and  _500
REMARK  202  A    between atoms: _500  and  _501
REMARK  203  A    between atoms: _504  and  _506
REMARK  204  A    between atoms: _506  and  _507
REMARK  205  A    between atoms: _506  and  _509
REMARK  206  A    between atoms: _509  and  _510
REMARK  207  A    between atoms: _510  and  _511
REMARK  208  A    between atoms: _511  and  _512
REMARK  209  A    between atoms: _521  and  _523
REMARK  210  A    between atoms: _523  and  _524
REMARK  211  A    between atoms: _523  and  _526
REMARK  212  A    between atoms: _526  and  _527
REMARK  213  A    between atoms: _527  and  _528
REMARK  214  A    between atoms: _528  and  _529
REMARK  215  A    between atoms: _529  and  _530
REMARK  216  A    between atoms: _534  and  _536
REMARK  217  A    between atoms: _536  and  _537
REMARK  218  A    between atoms: _536  and  _539
REMARK  219  A    between atoms: _539  and  _540
REMARK  220  A    between atoms: _545  and  _546
REMARK  221  A    between atoms: _548  and  _550
REMARK  222  A    between atoms: _550  and  _551
REMARK  223  A    between atoms: _553  and  _555
REMARK  224  A    between atoms: _555  and  _556
REMARK  225  A    between atoms: _555  and  _558
REMARK  226  A    between atoms: _558  and  _559
REMARK  227  A    between atoms: _565  and  _567
REMARK  228  A    between atoms: _567  and  _568
REMARK  229  A    between atoms: _567  and  _570
REMARK  230  A    between atoms: _570  and  _571
REMARK  231  A    between atoms: _576  and  _577
REMARK  232  A    between atoms: _579  and  _581
REMARK  233  A    between atoms: _581  and  _582
REMARK  234  A    between atoms: _581  and  _584
REMARK  235  A    between atoms: _584  and  _585
REMARK                            x       y       z     vdW  Elec       q    Type
REMARK                         _______ _______ _______ _____ _____    ______ ____
ROOT
ATOM      1  O   HOH     1      11.562 -15.333  18.981  0.00  0.00    +0.000 OA
ENDROOT
TORSDOF 0
REMARK  Name = ../refined-set-2016/1z71/1z71_pocket.pdb
REMARK  235 active torsions:
REMARK  status: ('A' for Active; 'I' for Inactive)
REMARK    1  A    between atoms: _1  and  _5
REMARK    2  A    between atoms: _5  and  _6
REMARK    3  A    between atoms: _5  and  _8
REMARK    4  A    between atoms: _8  and  _9
REMARK    5  A    between atoms: _12  and  _14
REMARK    6  A    between atoms: _14  and  _15
REMARK    7  A    between atoms: _14  and  _17
REMARK    8  A    between atoms: _20  and  _22
REMARK    9  A    between atoms: _22  and  _23
REMARK   10  A    between atoms: _22  and  _25
REMARK   11  A    between atoms: _25  and  _26
REMARK   12  A    between atoms: _26  and  _61
REMARK   13  A    between atoms: _27  and  _29
REMARK   14  A    between atoms: _29  and  _30
REMARK   15  A    between atoms: _32  and  _34
REMARK   16  A    between atoms: _34  and  _35
REMARK   17  A    between atoms: _38  and  _40
REMARK   18  A    between atoms: _40  and  _41
REMARK   19  A    between atoms: _44  and  _46
REMARK   20  A    between atoms: _46  and  _47
REMARK   21  A    between atoms: _46  and  _49
REMARK   22  A    between atoms: _49  and  _50
REMARK   23  A    between atoms: _55  and  _57
REMARK   24  A    between atoms: _57  and  _58
REMARK   25  A    between atoms: _57  and  _60
REMARK   26  A    between atoms: _60  and  _61
REMARK   27  A    between atoms: _62  and  _64
REMARK   28  A    between atoms: _64  and  _65
REMARK   29  A    between atoms: _64  and  _67
REMARK   30  A    between atoms: _67  and  _68
REMARK   31  A    between atoms: _71  and  _73
REMARK   32  A    between atoms: _73  and  _74
REMARK   33  A    between atoms: _73  and  _76
REMARK   34  A    between atoms: _76  and  _77
REMARK   35  A    between atoms: _82  and  _83
REMARK   36  A    between atoms: _86  and  _87
REMARK   37  A    between atoms: _92  and  _94
REMARK   38  A    between atoms: _94  and  _95
REMARK   39  A    between atoms: _94  and  _97
REMARK   40  A    between atoms: _97  and  _98
REMARK   41  A    between atoms: _108  and  _110
REMARK   42  A    between atoms: _110  and  _111
REMARK   43  A    between atoms: _110  and  _113
REMARK   44  A    between atoms: _113  and  _114
REMARK   45  A    between atoms: _114  and  _115
REMARK   46  A    between atoms: _115  and  _116
REMARK   47  A    between atoms: _116  and  _117
REMARK   48  A    between atoms: _121  and  _123
REMARK   49  A    between atoms: _123  and  _124
REMARK   50  A    between atoms: _123  and  _126
REMARK   51  A    between atoms: _126  and  _127
REMARK   52  A    between atoms: _132  and  _133
REMARK   53  A    between atoms: _135  and  _137
REMARK   54  A    between atoms: _137  and  _138
REMARK   55  A    between atoms: _137  and  _140
REMARK   56  A    between atoms: _140  and  _141
REMARK   57  A    between atoms: _146  and  _148
REMARK   58  A    between atoms: _148  and  _149
REMARK   59  A    between atoms: _148  and  _151
REMARK   60  A    between atoms: _151  and  _152
REMARK   61  A    between atoms: _162  and  _164
REMARK   62  A    between atoms: _164  and  _165
REMARK   63  A    between atoms: _164  and  _167
REMARK   64  A    between atoms: _167  and  _168
REMARK   65  A    between atoms: _168  and  _169
REMARK   66  A    between atoms: _169  and  _170
REMARK   67  A    between atoms: _179  and  _181
REMARK   68  A    between atoms: _181  and  _182
REMARK   69  A    between atoms: _181  and  _184
REMARK   70  A    between atoms: _184  and  _185
REMARK   71  A    between atoms: _185  and  _186
REMARK   72  A    between atoms: _189  and  _191
REMARK   73  A    between atoms: _191  and  _192
REMARK   74  A    between atoms: _191  and  _194
REMARK   75  A    between atoms: _194  and  _195
REMARK   76  A    between atoms: _200  and  _202
REMARK   77  A    between atoms: _202  and  _203
REMARK   78  A    between atoms: _202  and  _205
REMARK   79  A    between atoms: _205  and  _206
REMARK   80  A    between atoms: _209  and  _211
REMARK   81  A    between atoms: _211  and  _212
REMARK   82  A    between atoms: _211  and  _214
REMARK   83  A    between atoms: _214  and  _215
REMARK   84  A    between atoms: _218  and  _220
REMARK   85  A    between atoms: _220  and  _221
REMARK   86  A    between atoms: _220  and  _223
REMARK   87  A    between atoms: _223  and  _224
REMARK   88  A    between atoms: _227  and  _229
REMARK   89  A    between atoms: _229  and  _230
REMARK   90  A    between atoms: _229  and  _232
REMARK   91  A    between atoms: _235  and  _237
REMARK   92  A    between atoms: _237  and  _238
REMARK   93  A    between atoms: _240  and  _242
REMARK   94  A    between atoms: _242  and  _243
REMARK   95  A    between atoms: _242  and  _245
REMARK   96  A    between atoms: _245  and  _246
REMARK   97  A    between atoms: _251  and  _253
REMARK   98  A    between atoms: _253  and  _254
REMARK   99  A    between atoms: _253  and  _256
REMARK  100  A    between atoms: _256  and  _257
REMARK  101  A    between atoms: _260  and  _262
REMARK  102  A    between atoms: _262  and  _263
REMARK  103  A    between atoms: _262  and  _265
REMARK  104  A    between atoms: _265  and  _266
REMARK  105  A    between atoms: _269  and  _271
REMARK  106  A    between atoms: _271  and  _272
REMARK  107  A    between atoms: _271  and  _274
REMARK  108  A    between atoms: _274  and  _275
REMARK  109  A    between atoms: _275  and  _276
REMARK  110  A    between atoms: _276  and  _277
REMARK  111  A    between atoms: _286  and  _288
REMARK  112  A    between atoms: _288  and  _289
REMARK  113  A    between atoms: _288  and  _291
REMARK  114  A    between atoms: _291  and  _292
REMARK  115  A    between atoms: _295  and  _297
REMARK  116  A    between atoms: _297  and  _298
REMARK  117  A    between atoms: _297  and  _300
REMARK  118  A    between atoms: _300  and  _301
REMARK  119  A    between atoms: _301  and  _302
REMARK  120  A    between atoms: _302  and  _303
REMARK  121  A    between atoms: _312  and  _314
REMARK  122  A    between atoms: _314  and  _315
REMARK  123  A    between atoms: _314  and  _317
REMARK  124  A    between atoms: _317  and  _318
REMARK  125  A    between atoms: _318  and  _319
REMARK  126  A    between atoms: _321  and  _323
REMARK  127  A    between atoms: _323  and  _324
REMARK  128  A    between atoms: _323  and  _326
REMARK  129  A    between atoms: _326  and  _327
REMARK  130  A    between atoms: _333  and  _335
REMARK  131  A    between atoms: _335  and  _336
REMARK  132  A    between atoms: _335  and  _338
REMARK  133  A    between atoms: _340  and  _342
REMARK  134  A    between atoms: _342  and  _343
REMARK  135  A    between atoms: _346  and  _348
REMARK  136  A    between atoms: _348  and  _349
REMARK  137  A    between atoms: _351  and  _353
REMARK  138  A    between atoms: _353  and  _354
REMARK  139  A    between atoms: _353  and  _356
REMARK  140  A    between atoms: _356  and  _357
REMARK  141  A    between atoms: _360  and  _362
REMARK  142  A    between atoms: _362  and  _363
REMARK  143  A    between atoms: _366  and  _368
REMARK  144  A    between atoms: _368  and  _369
REMARK  145  A    between atoms: _368  and  _371
REMARK  146  A    between atoms: _371  and  _372
REMARK  147  A    between atoms: _372  and  _494
REMARK  148  A    between atoms: _373  and  _375
REMARK  149  A    between atoms: _375  and  _376
REMARK  150  A    between atoms: _375  and  _378
REMARK  151  A    between atoms: _378  and  _379
REMARK  152  A    between atoms: _379  and  _380
REMARK  153  A    between atoms: _383  and  _385
REMARK  154  A    between atoms: _385  and  _386
REMARK  155  A    between atoms: _388  and  _390
REMARK  156  A    between atoms: _390  and  _391
REMARK  157  A    between atoms: _390  and  _393
REMARK  158  A    between atoms: _393  and  _394
REMARK  159  A    between atoms: _397  and  _399
REMARK  160  A    between atoms: _399  and  _400
REMARK  161  A    between atoms: _399  and  _402
REMARK  162  A    between atoms: _402  and  _403
REMARK  163  A    between atoms: _405  and  _407
REMARK  164  A    between atoms: _407  and  _408
REMARK  165  A    between atoms: _410  and  _412
REMARK  166  A    between atoms: _412  and  _413
REMARK  167  A    between atoms: _415  and  _417
REMARK  168  A    between atoms: _417  and  _418
REMARK  169  A    between atoms: _417  and  _420
REMARK  170  A    between atoms: _420  and  _421
REMARK  171  A    between atoms: _427  and  _429
REMARK  172  A    between atoms: _429  and  _430
REMARK  173  A    between atoms: _429  and  _432
REMARK  174  A    between atoms: _432  and  _433
REMARK  175  A    between atoms: _436  and  _438
REMARK  176  A    between atoms: _438  and  _439
REMARK  177  A    between atoms: _438  and  _441
REMARK  178  A    between atoms: _444  and  _446
REMARK  179  A    between atoms: _446  and  _447
REMARK  180  A    between atoms: _446  and  _449
REMARK  181  A    between atoms: _449  and  _450
REMARK  182  A    between atoms: _452  and  _454
REMARK  183  A    between atoms: _454  and  _455
REMARK  184  A    between atoms: _454  and  _457
REMARK  185  A    between atoms: _457  and  _458
REMARK  186  A    between atoms: _468  and  _470
REMARK  187  A    between atoms: _470  and  _471
REMARK  188  A    between atoms: _473  and  _475
REMARK  189  A    between atoms: _475  and  _476
REMARK  190  A    between atoms: _475  and  _478
REMARK  191  A    between atoms: _478  and  _479
REMARK  192  A    between atoms: _479  and  _480
REMARK  193  A    between atoms: _483  and  _485
REMARK  194  A    between atoms: _485  and  _486
REMARK  195  A    between atoms: _488  and  _490
REMARK  196  A    between atoms: _490  and  _491
REMARK  197  A    between atoms: _490  and  _493
REMARK  198  A    between atoms: _493  and  _494
REMARK  199  A    between atoms: _495  and  _497
REMARK  200  A    between atoms: _497  and  _498
REMARK  201  A    between atoms: _497  and  _500
REMARK  202  A    between atoms: _500  and  _501
REMARK  203  A    between atoms: _504  and  _506
REMARK  204  A    between atoms: _506  and  _507
REMARK  205  A    between atoms: _506  and  _509
REMARK  206  A    between atoms: _509  and  _510
REMARK  207  A    between atoms: _510  and  _511
REMARK  208  A    between atoms: _511  and  _512
REMARK  209  A    between atoms: _521  and  _523
REMARK  210  A    between atoms: _523  and  _524
REMARK  211  A    between atoms: _523  and  _526
REMARK  212  A    between atoms: _526  and  _527
REMARK  213  A    between atoms: _527  and  _528
REMARK  214  A    between atoms: _528  and  _529
REMARK  215  A    between atoms: _529  and  _530
REMARK  216  A    between atoms: _534  and  _536
REMARK  217  A    between atoms: _536  and  _537
REMARK  218  A    between atoms: _536  and  _539
REMARK  219  A    between atoms: _539  and  _540
REMARK  220  A    between atoms: _545  and  _546
REMARK  221  A    between atoms: _548  and  _550
REMARK  222  A    between atoms: _550  and  _551
REMARK  223  A    between atoms: _553  and  _555
REMARK  224  A    between atoms: _555  and  _556
REMARK  225  A    between atoms: _555  and  _558
REMARK  226  A    between atoms: _558  and  _559
REMARK  227  A    between atoms: _565  and  _567
REMARK  228  A    between atoms: _567  and  _568
REMARK  229  A    between atoms: _567  and  _570
REMARK  230  A    between atoms: _570  and  _571
REMARK  231  A    between atoms: _576  and  _577
REMARK  232  A    between atoms: _579  and  _581
REMARK  233  A    between atoms: _581  and  _582
REMARK  234  A    between atoms: _581  and  _584
REMARK  235  A    between atoms: _584  and  _585
REMARK                            x       y       z     vdW  Elec       q    Type
REMARK                         _______ _______ _______ _____ _____    ______ ____
ROOT
ATOM      1  O   HOH     1      14.912 -15.698  21.655  0.00  0.00    +0.000 OA
ENDROOT
TORSDOF 0
REMARK  Name = ../refined-set-2016/1z71/1z71_pocket.pdb
REMARK  235 active torsions:
REMARK  status: ('A' for Active; 'I' for Inactive)
REMARK    1  A    between atoms: _1  and  _5
REMARK    2  A    between atoms: _5  and  _6
REMARK    3  A    between atoms: _5  and  _8
REMARK    4  A    between atoms: _8  and  _9
REMARK    5  A    between atoms: _12  and  _14
REMARK    6  A    between atoms: _14  and  _15
REMARK    7  A    between atoms: _14  and  _17
REMARK    8  A    between atoms: _20  and  _22
REMARK    9  A    between atoms: _22  and  _23
REMARK   10  A    between atoms: _22  and  _25
REMARK   11  A    between atoms: _25  and  _26
REMARK   12  A    between atoms: _26  and  _61
REMARK   13  A    between atoms: _27  and  _29
REMARK   14  A    between atoms: _29  and  _30
REMARK   15  A    between atoms: _32  and  _34
REMARK   16  A    between atoms: _34  and  _35
REMARK   17  A    between atoms: _38  and  _40
REMARK   18  A    between atoms: _40  and  _41
REMARK   19  A    between atoms: _44  and  _46
REMARK   20  A    between atoms: _46  and  _47
REMARK   21  A    between atoms: _46  and  _49
REMARK   22  A    between atoms: _49  and  _50
REMARK   23  A    between atoms: _55  and  _57
REMARK   24  A    between atoms: _57  and  _58
REMARK   25  A    between atoms: _57  and  _60
REMARK   26  A    between atoms: _60  and  _61
REMARK   27  A    between atoms: _62  and  _64
REMARK   28  A    between atoms: _64  and  _65
REMARK   29  A    between atoms: _64  and  _67
REMARK   30  A    between atoms: _67  and  _68
REMARK   31  A    between atoms: _71  and  _73
REMARK   32  A    between atoms: _73  and  _74
REMARK   33  A    between atoms: _73  and  _76
REMARK   34  A    between atoms: _76  and  _77
REMARK   35  A    between atoms: _82  and  _83
REMARK   36  A    between atoms: _86  and  _87
REMARK   37  A    between atoms: _92  and  _94
REMARK   38  A    between atoms: _94  and  _95
REMARK   39  A    between atoms: _94  and  _97
REMARK   40  A    between atoms: _97  and  _98
REMARK   41  A    between atoms: _108  and  _110
REMARK   42  A    between atoms: _110  and  _111
REMARK   43  A    between atoms: _110  and  _113
REMARK   44  A    between atoms: _113  and  _114
REMARK   45  A    between atoms: _114  and  _115
REMARK   46  A    between atoms: _115  and  _116
REMARK   47  A    between atoms: _116  and  _117
REMARK   48  A    between atoms: _121  and  _123
REMARK   49  A    between atoms: _123  and  _124
REMARK   50  A    between atoms: _123  and  _126
REMARK   51  A    between atoms: _126  and  _127
REMARK   52  A    between atoms: _132  and  _133
REMARK   53  A    between atoms: _135  and  _137
REMARK   54  A    between atoms: _137  and  _138
REMARK   55  A    between atoms: _137  and  _140
REMARK   56  A    between atoms: _140  and  _141
REMARK   57  A    between atoms: _146  and  _148
REMARK   58  A    between atoms: _148  and  _149
REMARK   59  A    between atoms: _148  and  _151
REMARK   60  A    between atoms: _151  and  _152
REMARK   61  A    between atoms: _162  and  _164
REMARK   62  A    between atoms: _164  and  _165
REMARK   63  A    between atoms: _164  and  _167
REMARK   64  A    between atoms: _167  and  _168
REMARK   65  A    between atoms: _168  and  _169
REMARK   66  A    between atoms: _169  and  _170
REMARK   67  A    between atoms: _179  and  _181
REMARK   68  A    between atoms: _181  and  _182
REMARK   69  A    between atoms: _181  and  _184
REMARK   70  A    between atoms: _184  and  _185
REMARK   71  A    between atoms: _185  and  _186
REMARK   72  A    between atoms: _189  and  _191
REMARK   73  A    between atoms: _191  and  _192
REMARK   74  A    between atoms: _191  and  _194
REMARK   75  A    between atoms: _194  and  _195
REMARK   76  A    between atoms: _200  and  _202
REMARK   77  A    between atoms: _202  and  _203
REMARK   78  A    between atoms: _202  and  _205
REMARK   79  A    between atoms: _205  and  _206
REMARK   80  A    between atoms: _209  and  _211
REMARK   81  A    between atoms: _211  and  _212
REMARK   82  A    between atoms: _211  and  _214
REMARK   83  A    between atoms: _214  and  _215
REMARK   84  A    between atoms: _218  and  _220
REMARK   85  A    between atoms: _220  and  _221
REMARK   86  A    between atoms: _220  and  _223
REMARK   87  A    between atoms: _223  and  _224
REMARK   88  A    between atoms: _227  and  _229
REMARK   89  A    between atoms: _229  and  _230
REMARK   90  A    between atoms: _229  and  _232
REMARK   91  A    between atoms: _235  and  _237
REMARK   92  A    between atoms: _237  and  _238
REMARK   93  A    between atoms: _240  and  _242
REMARK   94  A    between atoms: _242  and  _243
REMARK   95  A    between atoms: _242  and  _245
REMARK   96  A    between atoms: _245  and  _246
REMARK   97  A    between atoms: _251  and  _253
REMARK   98  A    between atoms: _253  and  _254
REMARK   99  A    between atoms: _253  and  _256
REMARK  100  A    between atoms: _256  and  _257
REMARK  101  A    between atoms: _260  and  _262
REMARK  102  A    between atoms: _262  and  _263
REMARK  103  A    between atoms: _262  and  _265
REMARK  104  A    between atoms: _265  and  _266
REMARK  105  A    between atoms: _269  and  _271
REMARK  106  A    between atoms: _271  and  _272
REMARK  107  A    between atoms: _271  and  _274
REMARK  108  A    between atoms: _274  and  _275
REMARK  109  A    between atoms: _275  and  _276
REMARK  110  A    between atoms: _276  and  _277
REMARK  111  A    between atoms: _286  and  _288
REMARK  112  A    between atoms: _288  and  _289
REMARK  113  A    between atoms: _288  and  _291
REMARK  114  A    between atoms: _291  and  _292
REMARK  115  A    between atoms: _295  and  _297
REMARK  116  A    between atoms: _297  and  _298
REMARK  117  A    between atoms: _297  and  _300
REMARK  118  A    between atoms: _300  and  _301
REMARK  119  A    between atoms: _301  and  _302
REMARK  120  A    between atoms: _302  and  _303
REMARK  121  A    between atoms: _312  and  _314
REMARK  122  A    between atoms: _314  and  _315
REMARK  123  A    between atoms: _314  and  _317
REMARK  124  A    between atoms: _317  and  _318
REMARK  125  A    between atoms: _318  and  _319
REMARK  126  A    between atoms: _321  and  _323
REMARK  127  A    between atoms: _323  and  _324
REMARK  128  A    between atoms: _323  and  _326
REMARK  129  A    between atoms: _326  and  _327
REMARK  130  A    between atoms: _333  and  _335
REMARK  131  A    between atoms: _335  and  _336
REMARK  132  A    between atoms: _335  and  _338
REMARK  133  A    between atoms: _340  and  _342
REMARK  134  A    between atoms: _342  and  _343
REMARK  135  A    between atoms: _346  and  _348
REMARK  136  A    between atoms: _348  and  _349
REMARK  137  A    between atoms: _351  and  _353
REMARK  138  A    between atoms: _353  and  _354
REMARK  139  A    between atoms: _353  and  _356
REMARK  140  A    between atoms: _356  and  _357
REMARK  141  A    between atoms: _360  and  _362
REMARK  142  A    between atoms: _362  and  _363
REMARK  143  A    between atoms: _366  and  _368
REMARK  144  A    between atoms: _368  and  _369
REMARK  145  A    between atoms: _368  and  _371
REMARK  146  A    between atoms: _371  and  _372
REMARK  147  A    between atoms: _372  and  _494
REMARK  148  A    between atoms: _373  and  _375
REMARK  149  A    between atoms: _375  and  _376
REMARK  150  A    between atoms: _375  and  _378
REMARK  151  A    between atoms: _378  and  _379
REMARK  152  A    between atoms: _379  and  _380
REMARK  153  A    between atoms: _383  and  _385
REMARK  154  A    between atoms: _385  and  _386
REMARK  155  A    between atoms: _388  and  _390
REMARK  156  A    between atoms: _390  and  _391
REMARK  157  A    between atoms: _390  and  _393
REMARK  158  A    between atoms: _393  and  _394
REMARK  159  A    between atoms: _397  and  _399
REMARK  160  A    between atoms: _399  and  _400
REMARK  161  A    between atoms: _399  and  _402
REMARK  162  A    between atoms: _402  and  _403
REMARK  163  A    between atoms: _405  and  _407
REMARK  164  A    between atoms: _407  and  _408
REMARK  165  A    between atoms: _410  and  _412
REMARK  166  A    between atoms: _412  and  _413
REMARK  167  A    between atoms: _415  and  _417
REMARK  168  A    between atoms: _417  and  _418
REMARK  169  A    between atoms: _417  and  _420
REMARK  170  A    between atoms: _420  and  _421
REMARK  171  A    between atoms: _427  and  _429
REMARK  172  A    between atoms: _429  and  _430
REMARK  173  A    between atoms: _429  and  _432
REMARK  174  A    between atoms: _432  and  _433
REMARK  175  A    between atoms: _436  and  _438
REMARK  176  A    between atoms: _438  and  _439
REMARK  177  A    between atoms: _438  and  _441
REMARK  178  A    between atoms: _444  and  _446
REMARK  179  A    between atoms: _446  and  _447
REMARK  180  A    between atoms: _446  and  _449
REMARK  181  A    between atoms: _449  and  _450
REMARK  182  A    between atoms: _452  and  _454
REMARK  183  A    between atoms: _454  and  _455
REMARK  184  A    between atoms: _454  and  _457
REMARK  185  A    between atoms: _457  and  _458
REMARK  186  A    between atoms: _468  and  _470
REMARK  187  A    between atoms: _470  and  _471
REMARK  188  A    between atoms: _473  and  _475
REMARK  189  A    between atoms: _475  and  _476
REMARK  190  A    between atoms: _475  and  _478
REMARK  191  A    between atoms: _478  and  _479
REMARK  192  A    between atoms: _479  and  _480
REMARK  193  A    between atoms: _483  and  _485
REMARK  194  A    between atoms: _485  and  _486
REMARK  195  A    between atoms: _488  and  _490
REMARK  196  A    between atoms: _490  and  _491
REMARK  197  A    between atoms: _490  and  _493
REMARK  198  A    between atoms: _493  and  _494
REMARK  199  A    between atoms: _495  and  _497
REMARK  200  A    between atoms: _497  and  _498
REMARK  201  A    between atoms: _497  and  _500
REMARK  202  A    between atoms: _500  and  _501
REMARK  203  A    between atoms: _504  and  _506
REMARK  204  A    between atoms: _506  and  _507
REMARK  205  A    between atoms: _506  and  _509
REMARK  206  A    between atoms: _509  and  _510
REMARK  207  A    between atoms: _510  and  _511
REMARK  208  A    between atoms: _511  and  _512
REMARK  209  A    between atoms: _521  and  _523
REMARK  210  A    between atoms: _523  and  _524
REMARK  211  A    between atoms: _523  and  _526
REMARK  212  A    between atoms: _526  and  _527
REMARK  213  A    between atoms: _527  and  _528
REMARK  214  A    between atoms: _528  and  _529
REMARK  215  A    between atoms: _529  and  _530
REMARK  216  A    between atoms: _534  and  _536
REMARK  217  A    between atoms: _536  and  _537
REMARK  218  A    between atoms: _536  and  _539
REMARK  219  A    between atoms: _539  and  _540
REMARK  220  A    between atoms: _545  and  _546
REMARK  221  A    between atoms: _548  and  _550
REMARK  222  A    between atoms: _550  and  _551
REMARK  223  A    between atoms: _553  and  _555
REMARK  224  A    between atoms: _555  and  _556
REMARK  225  A    between atoms: _555  and  _558
REMARK  226  A    between atoms: _558  and  _559
REMARK  227  A    between atoms: _565  and  _567
REMARK  228  A    between atoms: _567  and  _568
REMARK  229  A    between atoms: _567  and  _570
REMARK  230  A    between atoms: _570  and  _571
REMARK  231  A    between atoms: _576  and  _577
REMARK  232  A    between atoms: _579  and  _581
REMARK  233  A    between atoms: _581  and  _582
REMARK  234  A    between atoms: _581  and  _584
REMARK  235  A    between atoms: _584  and  _585
REMARK                            x       y       z     vdW  Elec       q    Type
REMARK                         _______ _______ _______ _____ _____    ______ ____
ROOT
ATOM      1  O   HOH     1      14.365 -18.588  22.978  0.00  0.00    +0.000 OA
ENDROOT
TORSDOF 0
REMARK  Name = ../refined-set-2016/1z71/1z71_pocket.pdb
REMARK  235 active torsions:
REMARK  status: ('A' for Active; 'I' for Inactive)
REMARK    1  A    between atoms: _1  and  _5
REMARK    2  A    between atoms: _5  and  _6
REMARK    3  A    between atoms: _5  and  _8
REMARK    4  A    between atoms: _8  and  _9
REMARK    5  A    between atoms: _12  and  _14
REMARK    6  A    between atoms: _14  and  _15
REMARK    7  A    between atoms: _14  and  _17
REMARK    8  A    between atoms: _20  and  _22
REMARK    9  A    between atoms: _22  and  _23
REMARK   10  A    between atoms: _22  and  _25
REMARK   11  A    between atoms: _25  and  _26
REMARK   12  A    between atoms: _26  and  _61
REMARK   13  A    between atoms: _27  and  _29
REMARK   14  A    between atoms: _29  and  _30
REMARK   15  A    between atoms: _32  and  _34
REMARK   16  A    between atoms: _34  and  _35
REMARK   17  A    between atoms: _38  and  _40
REMARK   18  A    between atoms: _40  and  _41
REMARK   19  A    between atoms: _44  and  _46
REMARK   20  A    between atoms: _46  and  _47
REMARK   21  A    between atoms: _46  and  _49
REMARK   22  A    between atoms: _49  and  _50
REMARK   23  A    between atoms: _55  and  _57
REMARK   24  A    between atoms: _57  and  _58
REMARK   25  A    between atoms: _57  and  _60
REMARK   26  A    between atoms: _60  and  _61
REMARK   27  A    between atoms: _62  and  _64
REMARK   28  A    between atoms: _64  and  _65
REMARK   29  A    between atoms: _64  and  _67
REMARK   30  A    between atoms: _67  and  _68
REMARK   31  A    between atoms: _71  and  _73
REMARK   32  A    between atoms: _73  and  _74
REMARK   33  A    between atoms: _73  and  _76
REMARK   34  A    between atoms: _76  and  _77
REMARK   35  A    between atoms: _82  and  _83
REMARK   36  A    between atoms: _86  and  _87
REMARK   37  A    between atoms: _92  and  _94
REMARK   38  A    between atoms: _94  and  _95
REMARK   39  A    between atoms: _94  and  _97
REMARK   40  A    between atoms: _97  and  _98
REMARK   41  A    between atoms: _108  and  _110
REMARK   42  A    between atoms: _110  and  _111
REMARK   43  A    between atoms: _110  and  _113
REMARK   44  A    between atoms: _113  and  _114
REMARK   45  A    between atoms: _114  and  _115
REMARK   46  A    between atoms: _115  and  _116
REMARK   47  A    between atoms: _116  and  _117
REMARK   48  A    between atoms: _121  and  _123
REMARK   49  A    between atoms: _123  and  _124
REMARK   50  A    between atoms: _123  and  _126
REMARK   51  A    between atoms: _126  and  _127
REMARK   52  A    between atoms: _132  and  _133
REMARK   53  A    between atoms: _135  and  _137
REMARK   54  A    between atoms: _137  and  _138
REMARK   55  A    between atoms: _137  and  _140
REMARK   56  A    between atoms: _140  and  _141
REMARK   57  A    between atoms: _146  and  _148
REMARK   58  A    between atoms: _148  and  _149
REMARK   59  A    between atoms: _148  and  _151
REMARK   60  A    between atoms: _151  and  _152
REMARK   61  A    between atoms: _162  and  _164
REMARK   62  A    between atoms: _164  and  _165
REMARK   63  A    between atoms: _164  and  _167
REMARK   64  A    between atoms: _167  and  _168
REMARK   65  A    between atoms: _168  and  _169
REMARK   66  A    between atoms: _169  and  _170
REMARK   67  A    between atoms: _179  and  _181
REMARK   68  A    between atoms: _181  and  _182
REMARK   69  A    between atoms: _181  and  _184
REMARK   70  A    between atoms: _184  and  _185
REMARK   71  A    between atoms: _185  and  _186
REMARK   72  A    between atoms: _189  and  _191
REMARK   73  A    between atoms: _191  and  _192
REMARK   74  A    between atoms: _191  and  _194
REMARK   75  A    between atoms: _194  and  _195
REMARK   76  A    between atoms: _200  and  _202
REMARK   77  A    between atoms: _202  and  _203
REMARK   78  A    between atoms: _202  and  _205
REMARK   79  A    between atoms: _205  and  _206
REMARK   80  A    between atoms: _209  and  _211
REMARK   81  A    between atoms: _211  and  _212
REMARK   82  A    between atoms: _211  and  _214
REMARK   83  A    between atoms: _214  and  _215
REMARK   84  A    between atoms: _218  and  _220
REMARK   85  A    between atoms: _220  and  _221
REMARK   86  A    between atoms: _220  and  _223
REMARK   87  A    between atoms: _223  and  _224
REMARK   88  A    between atoms: _227  and  _229
REMARK   89  A    between atoms: _229  and  _230
REMARK   90  A    between atoms: _229  and  _232
REMARK   91  A    between atoms: _235  and  _237
REMARK   92  A    between atoms: _237  and  _238
REMARK   93  A    between atoms: _240  and  _242
REMARK   94  A    between atoms: _242  and  _243
REMARK   95  A    between atoms: _242  and  _245
REMARK   96  A    between atoms: _245  and  _246
REMARK   97  A    between atoms: _251  and  _253
REMARK   98  A    between atoms: _253  and  _254
REMARK   99  A    between atoms: _253  and  _256
REMARK  100  A    between atoms: _256  and  _257
REMARK  101  A    between atoms: _260  and  _262
REMARK  102  A    between atoms: _262  and  _263
REMARK  103  A    between atoms: _262  and  _265
REMARK  104  A    between atoms: _265  and  _266
REMARK  105  A    between atoms: _269  and  _271
REMARK  106  A    between atoms: _271  and  _272
REMARK  107  A    between atoms: _271  and  _274
REMARK  108  A    between atoms: _274  and  _275
REMARK  109  A    between atoms: _275  and  _276
REMARK  110  A    between atoms: _276  and  _277
REMARK  111  A    between atoms: _286  and  _288
REMARK  112  A    between atoms: _288  and  _289
REMARK  113  A    between atoms: _288  and  _291
REMARK  114  A    between atoms: _291  and  _292
REMARK  115  A    between atoms: _295  and  _297
REMARK  116  A    between atoms: _297  and  _298
REMARK  117  A    between atoms: _297  and  _300
REMARK  118  A    between atoms: _300  and  _301
REMARK  119  A    between atoms: _301  and  _302
REMARK  120  A    between atoms: _302  and  _303
REMARK  121  A    between atoms: _312  and  _314
REMARK  122  A    between atoms: _314  and  _315
REMARK  123  A    between atoms: _314  and  _317
REMARK  124  A    between atoms: _317  and  _318
REMARK  125  A    between atoms: _318  and  _319
REMARK  126  A    between atoms: _321  and  _323
REMARK  127  A    between atoms: _323  and  _324
REMARK  128  A    between atoms: _323  and  _326
REMARK  129  A    between atoms: _326  and  _327
REMARK  130  A    between atoms: _333  and  _335
REMARK  131  A    between atoms: _335  and  _336
REMARK  132  A    between atoms: _335  and  _338
REMARK  133  A    between atoms: _340  and  _342
REMARK  134  A    between atoms: _342  and  _343
REMARK  135  A    between atoms: _346  and  _348
REMARK  136  A    between atoms: _348  and  _349
REMARK  137  A    between atoms: _351  and  _353
REMARK  138  A    between atoms: _353  and  _354
REMARK  139  A    between atoms: _353  and  _356
REMARK  140  A    between atoms: _356  and  _357
REMARK  141  A    between atoms: _360  and  _362
REMARK  142  A    between atoms: _362  and  _363
REMARK  143  A    between atoms: _366  and  _368
REMARK  144  A    between atoms: _368  and  _369
REMARK  145  A    between atoms: _368  and  _371
REMARK  146  A    between atoms: _371  and  _372
REMARK  147  A    between atoms: _372  and  _494
REMARK  148  A    between atoms: _373  and  _375
REMARK  149  A    between atoms: _375  and  _376
REMARK  150  A    between atoms: _375  and  _378
REMARK  151  A    between atoms: _378  and  _379
REMARK  152  A    between atoms: _379  and  _380
REMARK  153  A    between atoms: _383  and  _385
REMARK  154  A    between atoms: _385  and  _386
REMARK  155  A    between atoms: _388  and  _390
REMARK  156  A    between atoms: _390  and  _391
REMARK  157  A    between atoms: _390  and  _393
REMARK  158  A    between atoms: _393  and  _394
REMARK  159  A    between atoms: _397  and  _399
REMARK  160  A    between atoms: _399  and  _400
REMARK  161  A    between atoms: _399  and  _402
REMARK  162  A    between atoms: _402  and  _403
REMARK  163  A    between atoms: _405  and  _407
REMARK  164  A    between atoms: _407  and  _408
REMARK  165  A    between atoms: _410  and  _412
REMARK  166  A    between atoms: _412  and  _413
REMARK  167  A    between atoms: _415  and  _417
REMARK  168  A    between atoms: _417  and  _418
REMARK  169  A    between atoms: _417  and  _420
REMARK  170  A    between atoms: _420  and  _421
REMARK  171  A    between atoms: _427  and  _429
REMARK  172  A    between atoms: _429  and  _430
REMARK  173  A    between atoms: _429  and  _432
REMARK  174  A    between atoms: _432  and  _433
REMARK  175  A    between atoms: _436  and  _438
REMARK  176  A    between atoms: _438  and  _439
REMARK  177  A    between atoms: _438  and  _441
REMARK  178  A    between atoms: _444  and  _446
REMARK  179  A    between atoms: _446  and  _447
REMARK  180  A    between atoms: _446  and  _449
REMARK  181  A    between atoms: _449  and  _450
REMARK  182  A    between atoms: _452  and  _454
REMARK  183  A    between atoms: _454  and  _455
REMARK  184  A    between atoms: _454  and  _457
REMARK  185  A    between atoms: _457  and  _458
REMARK  186  A    between atoms: _468  and  _470
REMARK  187  A    between atoms: _470  and  _471
REMARK  188  A    between atoms: _473  and  _475
REMARK  189  A    between atoms: _475  and  _476
REMARK  190  A    between atoms: _475  and  _478
REMARK  191  A    between atoms: _478  and  _479
REMARK  192  A    between atoms: _479  and  _480
REMARK  193  A    between atoms: _483  and  _485
REMARK  194  A    between atoms: _485  and  _486
REMARK  195  A    between atoms: _488  and  _490
REMARK  196  A    between atoms: _490  and  _491
REMARK  197  A    between atoms: _490  and  _493
REMARK  198  A    between atoms: _493  and  _494
REMARK  199  A    between atoms: _495  and  _497
REMARK  200  A    between atoms: _497  and  _498
REMARK  201  A    between atoms: _497  and  _500
REMARK  202  A    between atoms: _500  and  _501
REMARK  203  A    between atoms: _504  and  _506
REMARK  204  A    between atoms: _506  and  _507
REMARK  205  A    between atoms: _506  and  _509
REMARK  206  A    between atoms: _509  and  _510
REMARK  207  A    between atoms: _510  and  _511
REMARK  208  A    between atoms: _511  and  _512
REMARK  209  A    between atoms: _521  and  _523
REMARK  210  A    between atoms: _523  and  _524
REMARK  211  A    between atoms: _523  and  _526
REMARK  212  A    between atoms: _526  and  _527
REMARK  213  A    between atoms: _527  and  _528
REMARK  214  A    between atoms: _528  and  _529
REMARK  215  A    between atoms: _529  and  _530
REMARK  216  A    between atoms: _534  and  _536
REMARK  217  A    between atoms: _536  and  _537
REMARK  218  A    between atoms: _536  and  _539
REMARK  219  A    between atoms: _539  and  _540
REMARK  220  A    between atoms: _545  and  _546
REMARK  221  A    between atoms: _548  and  _550
REMARK  222  A    between atoms: _550  and  _551
REMARK  223  A    between atoms: _553  and  _555
REMARK  224  A    between atoms: _555  and  _556
REMARK  225  A    between atoms: _555  and  _558
REMARK  226  A    between atoms: _558  and  _559
REMARK  227  A    between atoms: _565  and  _567
REMARK  228  A    between atoms: _567  and  _568
REMARK  229  A    between atoms: _567  and  _570
REMARK  230  A    between atoms: _570  and  _571
REMARK  231  A    between atoms: _576  and  _577
REMARK  232  A    between atoms: _579  and  _581
REMARK  233  A    between atoms: _581  and  _582
REMARK  234  A    between atoms: _581  and  _584
REMARK  235  A    between atoms: _584  and  _585
REMARK                            x       y       z     vdW  Elec       q    Type
REMARK                         _______ _______ _______ _____ _____    ______ ____
ROOT
ATOM      1  O   HOH     1      14.248 -14.777  29.655  0.00  0.00    +0.000 OA
ENDROOT
TORSDOF 0
REMARK  Name = ../refined-set-2016/1z71/1z71_pocket.pdb
REMARK  235 active torsions:
REMARK  status: ('A' for Active; 'I' for Inactive)
REMARK    1  A    between atoms: _1  and  _5
REMARK    2  A    between atoms: _5  and  _6
REMARK    3  A    between atoms: _5  and  _8
REMARK    4  A    between atoms: _8  and  _9
REMARK    5  A    between atoms: _12  and  _14
REMARK    6  A    between atoms: _14  and  _15
REMARK    7  A    between atoms: _14  and  _17
REMARK    8  A    between atoms: _20  and  _22
REMARK    9  A    between atoms: _22  and  _23
REMARK   10  A    between atoms: _22  and  _25
REMARK   11  A    between atoms: _25  and  _26
REMARK   12  A    between atoms: _26  and  _61
REMARK   13  A    between atoms: _27  and  _29
REMARK   14  A    between atoms: _29  and  _30
REMARK   15  A    between atoms: _32  and  _34
REMARK   16  A    between atoms: _34  and  _35
REMARK   17  A    between atoms: _38  and  _40
REMARK   18  A    between atoms: _40  and  _41
REMARK   19  A    between atoms: _44  and  _46
REMARK   20  A    between atoms: _46  and  _47
REMARK   21  A    between atoms: _46  and  _49
REMARK   22  A    between atoms: _49  and  _50
REMARK   23  A    between atoms: _55  and  _57
REMARK   24  A    between atoms: _57  and  _58
REMARK   25  A    between atoms: _57  and  _60
REMARK   26  A    between atoms: _60  and  _61
REMARK   27  A    between atoms: _62  and  _64
REMARK   28  A    between atoms: _64  and  _65
REMARK   29  A    between atoms: _64  and  _67
REMARK   30  A    between atoms: _67  and  _68
REMARK   31  A    between atoms: _71  and  _73
REMARK   32  A    between atoms: _73  and  _74
REMARK   33  A    between atoms: _73  and  _76
REMARK   34  A    between atoms: _76  and  _77
REMARK   35  A    between atoms: _82  and  _83
REMARK   36  A    between atoms: _86  and  _87
REMARK   37  A    between atoms: _92  and  _94
REMARK   38  A    between atoms: _94  and  _95
REMARK   39  A    between atoms: _94  and  _97
REMARK   40  A    between atoms: _97  and  _98
REMARK   41  A    between atoms: _108  and  _110
REMARK   42  A    between atoms: _110  and  _111
REMARK   43  A    between atoms: _110  and  _113
REMARK   44  A    between atoms: _113  and  _114
REMARK   45  A    between atoms: _114  and  _115
REMARK   46  A    between atoms: _115  and  _116
REMARK   47  A    between atoms: _116  and  _117
REMARK   48  A    between atoms: _121  and  _123
REMARK   49  A    between atoms: _123  and  _124
REMARK   50  A    between atoms: _123  and  _126
REMARK   51  A    between atoms: _126  and  _127
REMARK   52  A    between atoms: _132  and  _133
REMARK   53  A    between atoms: _135  and  _137
REMARK   54  A    between atoms: _137  and  _138
REMARK   55  A    between atoms: _137  and  _140
REMARK   56  A    between atoms: _140  and  _141
REMARK   57  A    between atoms: _146  and  _148
REMARK   58  A    between atoms: _148  and  _149
REMARK   59  A    between atoms: _148  and  _151
REMARK   60  A    between atoms: _151  and  _152
REMARK   61  A    between atoms: _162  and  _164
REMARK   62  A    between atoms: _164  and  _165
REMARK   63  A    between atoms: _164  and  _167
REMARK   64  A    between atoms: _167  and  _168
REMARK   65  A    between atoms: _168  and  _169
REMARK   66  A    between atoms: _169  and  _170
REMARK   67  A    between atoms: _179  and  _181
REMARK   68  A    between atoms: _181  and  _182
REMARK   69  A    between atoms: _181  and  _184
REMARK   70  A    between atoms: _184  and  _185
REMARK   71  A    between atoms: _185  and  _186
REMARK   72  A    between atoms: _189  and  _191
REMARK   73  A    between atoms: _191  and  _192
REMARK   74  A    between atoms: _191  and  _194
REMARK   75  A    between atoms: _194  and  _195
REMARK   76  A    between atoms: _200  and  _202
REMARK   77  A    between atoms: _202  and  _203
REMARK   78  A    between atoms: _202  and  _205
REMARK   79  A    between atoms: _205  and  _206
REMARK   80  A    between atoms: _209  and  _211
REMARK   81  A    between atoms: _211  and  _212
REMARK   82  A    between atoms: _211  and  _214
REMARK   83  A    between atoms: _214  and  _215
REMARK   84  A    between atoms: _218  and  _220
REMARK   85  A    between atoms: _220  and  _221
REMARK   86  A    between atoms: _220  and  _223
REMARK   87  A    between atoms: _223  and  _224
REMARK   88  A    between atoms: _227  and  _229
REMARK   89  A    between atoms: _229  and  _230
REMARK   90  A    between atoms: _229  and  _232
REMARK   91  A    between atoms: _235  and  _237
REMARK   92  A    between atoms: _237  and  _238
REMARK   93  A    between atoms: _240  and  _242
REMARK   94  A    between atoms: _242  and  _243
REMARK   95  A    between atoms: _242  and  _245
REMARK   96  A    between atoms: _245  and  _246
REMARK   97  A    between atoms: _251  and  _253
REMARK   98  A    between atoms: _253  and  _254
REMARK   99  A    between atoms: _253  and  _256
REMARK  100  A    between atoms: _256  and  _257
REMARK  101  A    between atoms: _260  and  _262
REMARK  102  A    between atoms: _262  and  _263
REMARK  103  A    between atoms: _262  and  _265
REMARK  104  A    between atoms: _265  and  _266
REMARK  105  A    between atoms: _269  and  _271
REMARK  106  A    between atoms: _271  and  _272
REMARK  107  A    between atoms: _271  and  _274
REMARK  108  A    between atoms: _274  and  _275
REMARK  109  A    between atoms: _275  and  _276
REMARK  110  A    between atoms: _276  and  _277
REMARK  111  A    between atoms: _286  and  _288
REMARK  112  A    between atoms: _288  and  _289
REMARK  113  A    between atoms: _288  and  _291
REMARK  114  A    between atoms: _291  and  _292
REMARK  115  A    between atoms: _295  and  _297
REMARK  116  A    between atoms: _297  and  _298
REMARK  117  A    between atoms: _297  and  _300
REMARK  118  A    between atoms: _300  and  _301
REMARK  119  A    between atoms: _301  and  _302
REMARK  120  A    between atoms: _302  and  _303
REMARK  121  A    between atoms: _312  and  _314
REMARK  122  A    between atoms: _314  and  _315
REMARK  123  A    between atoms: _314  and  _317
REMARK  124  A    between atoms: _317  and  _318
REMARK  125  A    between atoms: _318  and  _319
REMARK  126  A    between atoms: _321  and  _323
REMARK  127  A    between atoms: _323  and  _324
REMARK  128  A    between atoms: _323  and  _326
REMARK  129  A    between atoms: _326  and  _327
REMARK  130  A    between atoms: _333  and  _335
REMARK  131  A    between atoms: _335  and  _336
REMARK  132  A    between atoms: _335  and  _338
REMARK  133  A    between atoms: _340  and  _342
REMARK  134  A    between atoms: _342  and  _343
REMARK  135  A    between atoms: _346  and  _348
REMARK  136  A    between atoms: _348  and  _349
REMARK  137  A    between atoms: _351  and  _353
REMARK  138  A    between atoms: _353  and  _354
REMARK  139  A    between atoms: _353  and  _356
REMARK  140  A    between atoms: _356  and  _357
REMARK  141  A    between atoms: _360  and  _362
REMARK  142  A    between atoms: _362  and  _363
REMARK  143  A    between atoms: _366  and  _368
REMARK  144  A    between atoms: _368  and  _369
REMARK  145  A    between atoms: _368  and  _371
REMARK  146  A    between atoms: _371  and  _372
REMARK  147  A    between atoms: _372  and  _494
REMARK  148  A    between atoms: _373  and  _375
REMARK  149  A    between atoms: _375  and  _376
REMARK  150  A    between atoms: _375  and  _378
REMARK  151  A    between atoms: _378  and  _379
REMARK  152  A    between atoms: _379  and  _380
REMARK  153  A    between atoms: _383  and  _385
REMARK  154  A    between atoms: _385  and  _386
REMARK  155  A    between atoms: _388  and  _390
REMARK  156  A    between atoms: _390  and  _391
REMARK  157  A    between atoms: _390  and  _393
REMARK  158  A    between atoms: _393  and  _394
REMARK  159  A    between atoms: _397  and  _399
REMARK  160  A    between atoms: _399  and  _400
REMARK  161  A    between atoms: _399  and  _402
REMARK  162  A    between atoms: _402  and  _403
REMARK  163  A    between atoms: _405  and  _407
REMARK  164  A    between atoms: _407  and  _408
REMARK  165  A    between atoms: _410  and  _412
REMARK  166  A    between atoms: _412  and  _413
REMARK  167  A    between atoms: _415  and  _417
REMARK  168  A    between atoms: _417  and  _418
REMARK  169  A    between atoms: _417  and  _420
REMARK  170  A    between atoms: _420  and  _421
REMARK  171  A    between atoms: _427  and  _429
REMARK  172  A    between atoms: _429  and  _430
REMARK  173  A    between atoms: _429  and  _432
REMARK  174  A    between atoms: _432  and  _433
REMARK  175  A    between atoms: _436  and  _438
REMARK  176  A    between atoms: _438  and  _439
REMARK  177  A    between atoms: _438  and  _441
REMARK  178  A    between atoms: _444  and  _446
REMARK  179  A    between atoms: _446  and  _447
REMARK  180  A    between atoms: _446  and  _449
REMARK  181  A    between atoms: _449  and  _450
REMARK  182  A    between atoms: _452  and  _454
REMARK  183  A    between atoms: _454  and  _455
REMARK  184  A    between atoms: _454  and  _457
REMARK  185  A    between atoms: _457  and  _458
REMARK  186  A    between atoms: _468  and  _470
REMARK  187  A    between atoms: _470  and  _471
REMARK  188  A    between atoms: _473  and  _475
REMARK  189  A    between atoms: _475  and  _476
REMARK  190  A    between atoms: _475  and  _478
REMARK  191  A    between atoms: _478  and  _479
REMARK  192  A    between atoms: _479  and  _480
REMARK  193  A    between atoms: _483  and  _485
REMARK  194  A    between atoms: _485  and  _486
REMARK  195  A    between atoms: _488  and  _490
REMARK  196  A    between atoms: _490  and  _491
REMARK  197  A    between atoms: _490  and  _493
REMARK  198  A    between atoms: _493  and  _494
REMARK  199  A    between atoms: _495  and  _497
REMARK  200  A    between atoms: _497  and  _498
REMARK  201  A    between atoms: _497  and  _500
REMARK  202  A    between atoms: _500  and  _501
REMARK  203  A    between atoms: _504  and  _506
REMARK  204  A    between atoms: _506  and  _507
REMARK  205  A    between atoms: _506  and  _509
REMARK  206  A    between atoms: _509  and  _510
REMARK  207  A    between atoms: _510  and  _511
REMARK  208  A    between atoms: _511  and  _512
REMARK  209  A    between atoms: _521  and  _523
REMARK  210  A    between atoms: _523  and  _524
REMARK  211  A    between atoms: _523  and  _526
REMARK  212  A    between atoms: _526  and  _527
REMARK  213  A    between atoms: _527  and  _528
REMARK  214  A    between atoms: _528  and  _529
REMARK  215  A    between atoms: _529  and  _530
REMARK  216  A    between atoms: _534  and  _536
REMARK  217  A    between atoms: _536  and  _537
REMARK  218  A    between atoms: _536  and  _539
REMARK  219  A    between atoms: _539  and  _540
REMARK  220  A    between atoms: _545  and  _546
REMARK  221  A    between atoms: _548  and  _550
REMARK  222  A    between atoms: _550  and  _551
REMARK  223  A    between atoms: _553  and  _555
REMARK  224  A    between atoms: _555  and  _556
REMARK  225  A    between atoms: _555  and  _558
REMARK  226  A    between atoms: _558  and  _559
REMARK  227  A    between atoms: _565  and  _567
REMARK  228  A    between atoms: _567  and  _568
REMARK  229  A    between atoms: _567  and  _570
REMARK  230  A    between atoms: _570  and  _571
REMARK  231  A    between atoms: _576  and  _577
REMARK  232  A    between atoms: _579  and  _581
REMARK  233  A    between atoms: _581  and  _582
REMARK  234  A    between atoms: _581  and  _584
REMARK  235  A    between atoms: _584  and  _585
REMARK                            x       y       z     vdW  Elec       q    Type
REMARK                         _______ _______ _______ _____ _____    ______ ____
ROOT
ATOM      1  O   HOH     1      25.102 -15.347  22.948  0.00  0.00    +0.000 OA
ENDROOT
TORSDOF 0
REMARK  Name = ../refined-set-2016/1z71/1z71_pocket.pdb
REMARK  235 active torsions:
REMARK  status: ('A' for Active; 'I' for Inactive)
REMARK    1  A    between atoms: _1  and  _5
REMARK    2  A    between atoms: _5  and  _6
REMARK    3  A    between atoms: _5  and  _8
REMARK    4  A    between atoms: _8  and  _9
REMARK    5  A    between atoms: _12  and  _14
REMARK    6  A    between atoms: _14  and  _15
REMARK    7  A    between atoms: _14  and  _17
REMARK    8  A    between atoms: _20  and  _22
REMARK    9  A    between atoms: _22  and  _23
REMARK   10  A    between atoms: _22  and  _25
REMARK   11  A    between atoms: _25  and  _26
REMARK   12  A    between atoms: _26  and  _61
REMARK   13  A    between atoms: _27  and  _29
REMARK   14  A    between atoms: _29  and  _30
REMARK   15  A    between atoms: _32  and  _34
REMARK   16  A    between atoms: _34  and  _35
REMARK   17  A    between atoms: _38  and  _40
REMARK   18  A    between atoms: _40  and  _41
REMARK   19  A    between atoms: _44  and  _46
REMARK   20  A    between atoms: _46  and  _47
REMARK   21  A    between atoms: _46  and  _49
REMARK   22  A    between atoms: _49  and  _50
REMARK   23  A    between atoms: _55  and  _57
REMARK   24  A    between atoms: _57  and  _58
REMARK   25  A    between atoms: _57  and  _60
REMARK   26  A    between atoms: _60  and  _61
REMARK   27  A    between atoms: _62  and  _64
REMARK   28  A    between atoms: _64  and  _65
REMARK   29  A    between atoms: _64  and  _67
REMARK   30  A    between atoms: _67  and  _68
REMARK   31  A    between atoms: _71  and  _73
REMARK   32  A    between atoms: _73  and  _74
REMARK   33  A    between atoms: _73  and  _76
REMARK   34  A    between atoms: _76  and  _77
REMARK   35  A    between atoms: _82  and  _83
REMARK   36  A    between atoms: _86  and  _87
REMARK   37  A    between atoms: _92  and  _94
REMARK   38  A    between atoms: _94  and  _95
REMARK   39  A    between atoms: _94  and  _97
REMARK   40  A    between atoms: _97  and  _98
REMARK   41  A    between atoms: _108  and  _110
REMARK   42  A    between atoms: _110  and  _111
REMARK   43  A    between atoms: _110  and  _113
REMARK   44  A    between atoms: _113  and  _114
REMARK   45  A    between atoms: _114  and  _115
REMARK   46  A    between atoms: _115  and  _116
REMARK   47  A    between atoms: _116  and  _117
REMARK   48  A    between atoms: _121  and  _123
REMARK   49  A    between atoms: _123  and  _124
REMARK   50  A    between atoms: _123  and  _126
REMARK   51  A    between atoms: _126  and  _127
REMARK   52  A    between atoms: _132  and  _133
REMARK   53  A    between atoms: _135  and  _137
REMARK   54  A    between atoms: _137  and  _138
REMARK   55  A    between atoms: _137  and  _140
REMARK   56  A    between atoms: _140  and  _141
REMARK   57  A    between atoms: _146  and  _148
REMARK   58  A    between atoms: _148  and  _149
REMARK   59  A    between atoms: _148  and  _151
REMARK   60  A    between atoms: _151  and  _152
REMARK   61  A    between atoms: _162  and  _164
REMARK   62  A    between atoms: _164  and  _165
REMARK   63  A    between atoms: _164  and  _167
REMARK   64  A    between atoms: _167  and  _168
REMARK   65  A    between atoms: _168  and  _169
REMARK   66  A    between atoms: _169  and  _170
REMARK   67  A    between atoms: _179  and  _181
REMARK   68  A    between atoms: _181  and  _182
REMARK   69  A    between atoms: _181  and  _184
REMARK   70  A    between atoms: _184  and  _185
REMARK   71  A    between atoms: _185  and  _186
REMARK   72  A    between atoms: _189  and  _191
REMARK   73  A    between atoms: _191  and  _192
REMARK   74  A    between atoms: _191  and  _194
REMARK   75  A    between atoms: _194  and  _195
REMARK   76  A    between atoms: _200  and  _202
REMARK   77  A    between atoms: _202  and  _203
REMARK   78  A    between atoms: _202  and  _205
REMARK   79  A    between atoms: _205  and  _206
REMARK   80  A    between atoms: _209  and  _211
REMARK   81  A    between atoms: _211  and  _212
REMARK   82  A    between atoms: _211  and  _214
REMARK   83  A    between atoms: _214  and  _215
REMARK   84  A    between atoms: _218  and  _220
REMARK   85  A    between atoms: _220  and  _221
REMARK   86  A    between atoms: _220  and  _223
REMARK   87  A    between atoms: _223  and  _224
REMARK   88  A    between atoms: _227  and  _229
REMARK   89  A    between atoms: _229  and  _230
REMARK   90  A    between atoms: _229  and  _232
REMARK   91  A    between atoms: _235  and  _237
REMARK   92  A    between atoms: _237  and  _238
REMARK   93  A    between atoms: _240  and  _242
REMARK   94  A    between atoms: _242  and  _243
REMARK   95  A    between atoms: _242  and  _245
REMARK   96  A    between atoms: _245  and  _246
REMARK   97  A    between atoms: _251  and  _253
REMARK   98  A    between atoms: _253  and  _254
REMARK   99  A    between atoms: _253  and  _256
REMARK  100  A    between atoms: _256  and  _257
REMARK  101  A    between atoms: _260  and  _262
REMARK  102  A    between atoms: _262  and  _263
REMARK  103  A    between atoms: _262  and  _265
REMARK  104  A    between atoms: _265  and  _266
REMARK  105  A    between atoms: _269  and  _271
REMARK  106  A    between atoms: _271  and  _272
REMARK  107  A    between atoms: _271  and  _274
REMARK  108  A    between atoms: _274  and  _275
REMARK  109  A    between atoms: _275  and  _276
REMARK  110  A    between atoms: _276  and  _277
REMARK  111  A    between atoms: _286  and  _288
REMARK  112  A    between atoms: _288  and  _289
REMARK  113  A    between atoms: _288  and  _291
REMARK  114  A    between atoms: _291  and  _292
REMARK  115  A    between atoms: _295  and  _297
REMARK  116  A    between atoms: _297  and  _298
REMARK  117  A    between atoms: _297  and  _300
REMARK  118  A    between atoms: _300  and  _301
REMARK  119  A    between atoms: _301  and  _302
REMARK  120  A    between atoms: _302  and  _303
REMARK  121  A    between atoms: _312  and  _314
REMARK  122  A    between atoms: _314  and  _315
REMARK  123  A    between atoms: _314  and  _317
REMARK  124  A    between atoms: _317  and  _318
REMARK  125  A    between atoms: _318  and  _319
REMARK  126  A    between atoms: _321  and  _323
REMARK  127  A    between atoms: _323  and  _324
REMARK  128  A    between atoms: _323  and  _326
REMARK  129  A    between atoms: _326  and  _327
REMARK  130  A    between atoms: _333  and  _335
REMARK  131  A    between atoms: _335  and  _336
REMARK  132  A    between atoms: _335  and  _338
REMARK  133  A    between atoms: _340  and  _342
REMARK  134  A    between atoms: _342  and  _343
REMARK  135  A    between atoms: _346  and  _348
REMARK  136  A    between atoms: _348  and  _349
REMARK  137  A    between atoms: _351  and  _353
REMARK  138  A    between atoms: _353  and  _354
REMARK  139  A    between atoms: _353  and  _356
REMARK  140  A    between atoms: _356  and  _357
REMARK  141  A    between atoms: _360  and  _362
REMARK  142  A    between atoms: _362  and  _363
REMARK  143  A    between atoms: _366  and  _368
REMARK  144  A    between atoms: _368  and  _369
REMARK  145  A    between atoms: _368  and  _371
REMARK  146  A    between atoms: _371  and  _372
REMARK  147  A    between atoms: _372  and  _494
REMARK  148  A    between atoms: _373  and  _375
REMARK  149  A    between atoms: _375  and  _376
REMARK  150  A    between atoms: _375  and  _378
REMARK  151  A    between atoms: _378  and  _379
REMARK  152  A    between atoms: _379  and  _380
REMARK  153  A    between atoms: _383  and  _385
REMARK  154  A    between atoms: _385  and  _386
REMARK  155  A    between atoms: _388  and  _390
REMARK  156  A    between atoms: _390  and  _391
REMARK  157  A    between atoms: _390  and  _393
REMARK  158  A    between atoms: _393  and  _394
REMARK  159  A    between atoms: _397  and  _399
REMARK  160  A    between atoms: _399  and  _400
REMARK  161  A    between atoms: _399  and  _402
REMARK  162  A    between atoms: _402  and  _403
REMARK  163  A    between atoms: _405  and  _407
REMARK  164  A    between atoms: _407  and  _408
REMARK  165  A    between atoms: _410  and  _412
REMARK  166  A    between atoms: _412  and  _413
REMARK  167  A    between atoms: _415  and  _417
REMARK  168  A    between atoms: _417  and  _418
REMARK  169  A    between atoms: _417  and  _420
REMARK  170  A    between atoms: _420  and  _421
REMARK  171  A    between atoms: _427  and  _429
REMARK  172  A    between atoms: _429  and  _430
REMARK  173  A    between atoms: _429  and  _432
REMARK  174  A    between atoms: _432  and  _433
REMARK  175  A    between atoms: _436  and  _438
REMARK  176  A    between atoms: _438  and  _439
REMARK  177  A    between atoms: _438  and  _441
REMARK  178  A    between atoms: _444  and  _446
REMARK  179  A    between atoms: _446  and  _447
REMARK  180  A    between atoms: _446  and  _449
REMARK  181  A    between atoms: _449  and  _450
REMARK  182  A    between atoms: _452  and  _454
REMARK  183  A    between atoms: _454  and  _455
REMARK  184  A    between atoms: _454  and  _457
REMARK  185  A    between atoms: _457  and  _458
REMARK  186  A    between atoms: _468  and  _470
REMARK  187  A    between atoms: _470  and  _471
REMARK  188  A    between atoms: _473  and  _475
REMARK  189  A    between atoms: _475  and  _476
REMARK  190  A    between atoms: _475  and  _478
REMARK  191  A    between atoms: _478  and  _479
REMARK  192  A    between atoms: _479  and  _480
REMARK  193  A    between atoms: _483  and  _485
REMARK  194  A    between atoms: _485  and  _486
REMARK  195  A    between atoms: _488  and  _490
REMARK  196  A    between atoms: _490  and  _491
REMARK  197  A    between atoms: _490  and  _493
REMARK  198  A    between atoms: _493  and  _494
REMARK  199  A    between atoms: _495  and  _497
REMARK  200  A    between atoms: _497  and  _498
REMARK  201  A    between atoms: _497  and  _500
REMARK  202  A    between atoms: _500  and  _501
REMARK  203  A    between atoms: _504  and  _506
REMARK  204  A    between atoms: _506  and  _507
REMARK  205  A    between atoms: _506  and  _509
REMARK  206  A    between atoms: _509  and  _510
REMARK  207  A    between atoms: _510  and  _511
REMARK  208  A    between atoms: _511  and  _512
REMARK  209  A    between atoms: _521  and  _523
REMARK  210  A    between atoms: _523  and  _524
REMARK  211  A    between atoms: _523  and  _526
REMARK  212  A    between atoms: _526  and  _527
REMARK  213  A    between atoms: _527  and  _528
REMARK  214  A    between atoms: _528  and  _529
REMARK  215  A    between atoms: _529  and  _530
REMARK  216  A    between atoms: _534  and  _536
REMARK  217  A    between atoms: _536  and  _537
REMARK  218  A    between atoms: _536  and  _539
REMARK  219  A    between atoms: _539  and  _540
REMARK  220  A    between atoms: _545  and  _546
REMARK  221  A    between atoms: _548  and  _550
REMARK  222  A    between atoms: _550  and  _551
REMARK  223  A    between atoms: _553  and  _555
REMARK  224  A    between atoms: _555  and  _556
REMARK  225  A    between atoms: _555  and  _558
REMARK  226  A    between atoms: _558  and  _559
REMARK  227  A    between atoms: _565  and  _567
REMARK  228  A    between atoms: _567  and  _568
REMARK  229  A    between atoms: _567  and  _570
REMARK  230  A    between atoms: _570  and  _571
REMARK  231  A    between atoms: _576  and  _577
REMARK  232  A    between atoms: _579  and  _581
REMARK  233  A    between atoms: _581  and  _582
REMARK  234  A    between atoms: _581  and  _584
REMARK  235  A    between atoms: _584  and  _585
REMARK                            x       y       z     vdW  Elec       q    Type
REMARK                         _______ _______ _______ _____ _____    ______ ____
ROOT
ATOM      1  O   HOH     1       8.109 -16.991  16.579  0.00  0.00    +0.000 OA
ENDROOT
TORSDOF 0
REMARK  Name = ../refined-set-2016/1z71/1z71_pocket.pdb
REMARK  235 active torsions:
REMARK  status: ('A' for Active; 'I' for Inactive)
REMARK    1  A    between atoms: _1  and  _5
REMARK    2  A    between atoms: _5  and  _6
REMARK    3  A    between atoms: _5  and  _8
REMARK    4  A    between atoms: _8  and  _9
REMARK    5  A    between atoms: _12  and  _14
REMARK    6  A    between atoms: _14  and  _15
REMARK    7  A    between atoms: _14  and  _17
REMARK    8  A    between atoms: _20  and  _22
REMARK    9  A    between atoms: _22  and  _23
REMARK   10  A    between atoms: _22  and  _25
REMARK   11  A    between atoms: _25  and  _26
REMARK   12  A    between atoms: _26  and  _61
REMARK   13  A    between atoms: _27  and  _29
REMARK   14  A    between atoms: _29  and  _30
REMARK   15  A    between atoms: _32  and  _34
REMARK   16  A    between atoms: _34  and  _35
REMARK   17  A    between atoms: _38  and  _40
REMARK   18  A    between atoms: _40  and  _41
REMARK   19  A    between atoms: _44  and  _46
REMARK   20  A    between atoms: _46  and  _47
REMARK   21  A    between atoms: _46  and  _49
REMARK   22  A    between atoms: _49  and  _50
REMARK   23  A    between atoms: _55  and  _57
REMARK   24  A    between atoms: _57  and  _58
REMARK   25  A    between atoms: _57  and  _60
REMARK   26  A    between atoms: _60  and  _61
REMARK   27  A    between atoms: _62  and  _64
REMARK   28  A    between atoms: _64  and  _65
REMARK   29  A    between atoms: _64  and  _67
REMARK   30  A    between atoms: _67  and  _68
REMARK   31  A    between atoms: _71  and  _73
REMARK   32  A    between atoms: _73  and  _74
REMARK   33  A    between atoms: _73  and  _76
REMARK   34  A    between atoms: _76  and  _77
REMARK   35  A    between atoms: _82  and  _83
REMARK   36  A    between atoms: _86  and  _87
REMARK   37  A    between atoms: _92  and  _94
REMARK   38  A    between atoms: _94  and  _95
REMARK   39  A    between atoms: _94  and  _97
REMARK   40  A    between atoms: _97  and  _98
REMARK   41  A    between atoms: _108  and  _110
REMARK   42  A    between atoms: _110  and  _111
REMARK   43  A    between atoms: _110  and  _113
REMARK   44  A    between atoms: _113  and  _114
REMARK   45  A    between atoms: _114  and  _115
REMARK   46  A    between atoms: _115  and  _116
REMARK   47  A    between atoms: _116  and  _117
REMARK   48  A    between atoms: _121  and  _123
REMARK   49  A    between atoms: _123  and  _124
REMARK   50  A    between atoms: _123  and  _126
REMARK   51  A    between atoms: _126  and  _127
REMARK   52  A    between atoms: _132  and  _133
REMARK   53  A    between atoms: _135  and  _137
REMARK   54  A    between atoms: _137  and  _138
REMARK   55  A    between atoms: _137  and  _140
REMARK   56  A    between atoms: _140  and  _141
REMARK   57  A    between atoms: _146  and  _148
REMARK   58  A    between atoms: _148  and  _149
REMARK   59  A    between atoms: _148  and  _151
REMARK   60  A    between atoms: _151  and  _152
REMARK   61  A    between atoms: _162  and  _164
REMARK   62  A    between atoms: _164  and  _165
REMARK   63  A    between atoms: _164  and  _167
REMARK   64  A    between atoms: _167  and  _168
REMARK   65  A    between atoms: _168  and  _169
REMARK   66  A    between atoms: _169  and  _170
REMARK   67  A    between atoms: _179  and  _181
REMARK   68  A    between atoms: _181  and  _182
REMARK   69  A    between atoms: _181  and  _184
REMARK   70  A    between atoms: _184  and  _185
REMARK   71  A    between atoms: _185  and  _186
REMARK   72  A    between atoms: _189  and  _191
REMARK   73  A    between atoms: _191  and  _192
REMARK   74  A    between atoms: _191  and  _194
REMARK   75  A    between atoms: _194  and  _195
REMARK   76  A    between atoms: _200  and  _202
REMARK   77  A    between atoms: _202  and  _203
REMARK   78  A    between atoms: _202  and  _205
REMARK   79  A    between atoms: _205  and  _206
REMARK   80  A    between atoms: _209  and  _211
REMARK   81  A    between atoms: _211  and  _212
REMARK   82  A    between atoms: _211  and  _214
REMARK   83  A    between atoms: _214  and  _215
REMARK   84  A    between atoms: _218  and  _220
REMARK   85  A    between atoms: _220  and  _221
REMARK   86  A    between atoms: _220  and  _223
REMARK   87  A    between atoms: _223  and  _224
REMARK   88  A    between atoms: _227  and  _229
REMARK   89  A    between atoms: _229  and  _230
REMARK   90  A    between atoms: _229  and  _232
REMARK   91  A    between atoms: _235  and  _237
REMARK   92  A    between atoms: _237  and  _238
REMARK   93  A    between atoms: _240  and  _242
REMARK   94  A    between atoms: _242  and  _243
REMARK   95  A    between atoms: _242  and  _245
REMARK   96  A    between atoms: _245  and  _246
REMARK   97  A    between atoms: _251  and  _253
REMARK   98  A    between atoms: _253  and  _254
REMARK   99  A    between atoms: _253  and  _256
REMARK  100  A    between atoms: _256  and  _257
REMARK  101  A    between atoms: _260  and  _262
REMARK  102  A    between atoms: _262  and  _263
REMARK  103  A    between atoms: _262  and  _265
REMARK  104  A    between atoms: _265  and  _266
REMARK  105  A    between atoms: _269  and  _271
REMARK  106  A    between atoms: _271  and  _272
REMARK  107  A    between atoms: _271  and  _274
REMARK  108  A    between atoms: _274  and  _275
REMARK  109  A    between atoms: _275  and  _276
REMARK  110  A    between atoms: _276  and  _277
REMARK  111  A    between atoms: _286  and  _288
REMARK  112  A    between atoms: _288  and  _289
REMARK  113  A    between atoms: _288  and  _291
REMARK  114  A    between atoms: _291  and  _292
REMARK  115  A    between atoms: _295  and  _297
REMARK  116  A    between atoms: _297  and  _298
REMARK  117  A    between atoms: _297  and  _300
REMARK  118  A    between atoms: _300  and  _301
REMARK  119  A    between atoms: _301  and  _302
REMARK  120  A    between atoms: _302  and  _303
REMARK  121  A    between atoms: _312  and  _314
REMARK  122  A    between atoms: _314  and  _315
REMARK  123  A    between atoms: _314  and  _317
REMARK  124  A    between atoms: _317  and  _318
REMARK  125  A    between atoms: _318  and  _319
REMARK  126  A    between atoms: _321  and  _323
REMARK  127  A    between atoms: _323  and  _324
REMARK  128  A    between atoms: _323  and  _326
REMARK  129  A    between atoms: _326  and  _327
REMARK  130  A    between atoms: _333  and  _335
REMARK  131  A    between atoms: _335  and  _336
REMARK  132  A    between atoms: _335  and  _338
REMARK  133  A    between atoms: _340  and  _342
REMARK  134  A    between atoms: _342  and  _343
REMARK  135  A    between atoms: _346  and  _348
REMARK  136  A    between atoms: _348  and  _349
REMARK  137  A    between atoms: _351  and  _353
REMARK  138  A    between atoms: _353  and  _354
REMARK  139  A    between atoms: _353  and  _356
REMARK  140  A    between atoms: _356  and  _357
REMARK  141  A    between atoms: _360  and  _362
REMARK  142  A    between atoms: _362  and  _363
REMARK  143  A    between atoms: _366  and  _368
REMARK  144  A    between atoms: _368  and  _369
REMARK  145  A    between atoms: _368  and  _371
REMARK  146  A    between atoms: _371  and  _372
REMARK  147  A    between atoms: _372  and  _494
REMARK  148  A    between atoms: _373  and  _375
REMARK  149  A    between atoms: _375  and  _376
REMARK  150  A    between atoms: _375  and  _378
REMARK  151  A    between atoms: _378  and  _379
REMARK  152  A    between atoms: _379  and  _380
REMARK  153  A    between atoms: _383  and  _385
REMARK  154  A    between atoms: _385  and  _386
REMARK  155  A    between atoms: _388  and  _390
REMARK  156  A    between atoms: _390  and  _391
REMARK  157  A    between atoms: _390  and  _393
REMARK  158  A    between atoms: _393  and  _394
REMARK  159  A    between atoms: _397  and  _399
REMARK  160  A    between atoms: _399  and  _400
REMARK  161  A    between atoms: _399  and  _402
REMARK  162  A    between atoms: _402  and  _403
REMARK  163  A    between atoms: _405  and  _407
REMARK  164  A    between atoms: _407  and  _408
REMARK  165  A    between atoms: _410  and  _412
REMARK  166  A    between atoms: _412  and  _413
REMARK  167  A    between atoms: _415  and  _417
REMARK  168  A    between atoms: _417  and  _418
REMARK  169  A    between atoms: _417  and  _420
REMARK  170  A    between atoms: _420  and  _421
REMARK  171  A    between atoms: _427  and  _429
REMARK  172  A    between atoms: _429  and  _430
REMARK  173  A    between atoms: _429  and  _432
REMARK  174  A    between atoms: _432  and  _433
REMARK  175  A    between atoms: _436  and  _438
REMARK  176  A    between atoms: _438  and  _439
REMARK  177  A    between atoms: _438  and  _441
REMARK  178  A    between atoms: _444  and  _446
REMARK  179  A    between atoms: _446  and  _447
REMARK  180  A    between atoms: _446  and  _449
REMARK  181  A    between atoms: _449  and  _450
REMARK  182  A    between atoms: _452  and  _454
REMARK  183  A    between atoms: _454  and  _455
REMARK  184  A    between atoms: _454  and  _457
REMARK  185  A    between atoms: _457  and  _458
REMARK  186  A    between atoms: _468  and  _470
REMARK  187  A    between atoms: _470  and  _471
REMARK  188  A    between atoms: _473  and  _475
REMARK  189  A    between atoms: _475  and  _476
REMARK  190  A    between atoms: _475  and  _478
REMARK  191  A    between atoms: _478  and  _479
REMARK  192  A    between atoms: _479  and  _480
REMARK  193  A    between atoms: _483  and  _485
REMARK  194  A    between atoms: _485  and  _486
REMARK  195  A    between atoms: _488  and  _490
REMARK  196  A    between atoms: _490  and  _491
REMARK  197  A    between atoms: _490  and  _493
REMARK  198  A    between atoms: _493  and  _494
REMARK  199  A    between atoms: _495  and  _497
REMARK  200  A    between atoms: _497  and  _498
REMARK  201  A    between atoms: _497  and  _500
REMARK  202  A    between atoms: _500  and  _501
REMARK  203  A    between atoms: _504  and  _506
REMARK  204  A    between atoms: _506  and  _507
REMARK  205  A    between atoms: _506  and  _509
REMARK  206  A    between atoms: _509  and  _510
REMARK  207  A    between atoms: _510  and  _511
REMARK  208  A    between atoms: _511  and  _512
REMARK  209  A    between atoms: _521  and  _523
REMARK  210  A    between atoms: _523  and  _524
REMARK  211  A    between atoms: _523  and  _526
REMARK  212  A    between atoms: _526  and  _527
REMARK  213  A    between atoms: _527  and  _528
REMARK  214  A    between atoms: _528  and  _529
REMARK  215  A    between atoms: _529  and  _530
REMARK  216  A    between atoms: _534  and  _536
REMARK  217  A    between atoms: _536  and  _537
REMARK  218  A    between atoms: _536  and  _539
REMARK  219  A    between atoms: _539  and  _540
REMARK  220  A    between atoms: _545  and  _546
REMARK  221  A    between atoms: _548  and  _550
REMARK  222  A    between atoms: _550  and  _551
REMARK  223  A    between atoms: _553  and  _555
REMARK  224  A    between atoms: _555  and  _556
REMARK  225  A    between atoms: _555  and  _558
REMARK  226  A    between atoms: _558  and  _559
REMARK  227  A    between atoms: _565  and  _567
REMARK  228  A    between atoms: _567  and  _568
REMARK  229  A    between atoms: _567  and  _570
REMARK  230  A    between atoms: _570  and  _571
REMARK  231  A    between atoms: _576  and  _577
REMARK  232  A    between atoms: _579  and  _581
REMARK  233  A    between atoms: _581  and  _582
REMARK  234  A    between atoms: _581  and  _584
REMARK  235  A    between atoms: _584  and  _585
REMARK                            x       y       z     vdW  Elec       q    Type
REMARK                         _______ _______ _______ _____ _____    ______ ____
ROOT
ATOM      1  O   HOH     1      11.797 -14.569  28.343  0.00  0.00    +0.000 OA
ENDROOT
TORSDOF 0
REMARK  Name = ../refined-set-2016/1z71/1z71_pocket.pdb
REMARK  235 active torsions:
REMARK  status: ('A' for Active; 'I' for Inactive)
REMARK    1  A    between atoms: _1  and  _5
REMARK    2  A    between atoms: _5  and  _6
REMARK    3  A    between atoms: _5  and  _8
REMARK    4  A    between atoms: _8  and  _9
REMARK    5  A    between atoms: _12  and  _14
REMARK    6  A    between atoms: _14  and  _15
REMARK    7  A    between atoms: _14  and  _17
REMARK    8  A    between atoms: _20  and  _22
REMARK    9  A    between atoms: _22  and  _23
REMARK   10  A    between atoms: _22  and  _25
REMARK   11  A    between atoms: _25  and  _26
REMARK   12  A    between atoms: _26  and  _61
REMARK   13  A    between atoms: _27  and  _29
REMARK   14  A    between atoms: _29  and  _30
REMARK   15  A    between atoms: _32  and  _34
REMARK   16  A    between atoms: _34  and  _35
REMARK   17  A    between atoms: _38  and  _40
REMARK   18  A    between atoms: _40  and  _41
REMARK   19  A    between atoms: _44  and  _46
REMARK   20  A    between atoms: _46  and  _47
REMARK   21  A    between atoms: _46  and  _49
REMARK   22  A    between atoms: _49  and  _50
REMARK   23  A    between atoms: _55  and  _57
REMARK   24  A    between atoms: _57  and  _58
REMARK   25  A    between atoms: _57  and  _60
REMARK   26  A    between atoms: _60  and  _61
REMARK   27  A    between atoms: _62  and  _64
REMARK   28  A    between atoms: _64  and  _65
REMARK   29  A    between atoms: _64  and  _67
REMARK   30  A    between atoms: _67  and  _68
REMARK   31  A    between atoms: _71  and  _73
REMARK   32  A    between atoms: _73  and  _74
REMARK   33  A    between atoms: _73  and  _76
REMARK   34  A    between atoms: _76  and  _77
REMARK   35  A    between atoms: _82  and  _83
REMARK   36  A    between atoms: _86  and  _87
REMARK   37  A    between atoms: _92  and  _94
REMARK   38  A    between atoms: _94  and  _95
REMARK   39  A    between atoms: _94  and  _97
REMARK   40  A    between atoms: _97  and  _98
REMARK   41  A    between atoms: _108  and  _110
REMARK   42  A    between atoms: _110  and  _111
REMARK   43  A    between atoms: _110  and  _113
REMARK   44  A    between atoms: _113  and  _114
REMARK   45  A    between atoms: _114  and  _115
REMARK   46  A    between atoms: _115  and  _116
REMARK   47  A    between atoms: _116  and  _117
REMARK   48  A    between atoms: _121  and  _123
REMARK   49  A    between atoms: _123  and  _124
REMARK   50  A    between atoms: _123  and  _126
REMARK   51  A    between atoms: _126  and  _127
REMARK   52  A    between atoms: _132  and  _133
REMARK   53  A    between atoms: _135  and  _137
REMARK   54  A    between atoms: _137  and  _138
REMARK   55  A    between atoms: _137  and  _140
REMARK   56  A    between atoms: _140  and  _141
REMARK   57  A    between atoms: _146  and  _148
REMARK   58  A    between atoms: _148  and  _149
REMARK   59  A    between atoms: _148  and  _151
REMARK   60  A    between atoms: _151  and  _152
REMARK   61  A    between atoms: _162  and  _164
REMARK   62  A    between atoms: _164  and  _165
REMARK   63  A    between atoms: _164  and  _167
REMARK   64  A    between atoms: _167  and  _168
REMARK   65  A    between atoms: _168  and  _169
REMARK   66  A    between atoms: _169  and  _170
REMARK   67  A    between atoms: _179  and  _181
REMARK   68  A    between atoms: _181  and  _182
REMARK   69  A    between atoms: _181  and  _184
REMARK   70  A    between atoms: _184  and  _185
REMARK   71  A    between atoms: _185  and  _186
REMARK   72  A    between atoms: _189  and  _191
REMARK   73  A    between atoms: _191  and  _192
REMARK   74  A    between atoms: _191  and  _194
REMARK   75  A    between atoms: _194  and  _195
REMARK   76  A    between atoms: _200  and  _202
REMARK   77  A    between atoms: _202  and  _203
REMARK   78  A    between atoms: _202  and  _205
REMARK   79  A    between atoms: _205  and  _206
REMARK   80  A    between atoms: _209  and  _211
REMARK   81  A    between atoms: _211  and  _212
REMARK   82  A    between atoms: _211  and  _214
REMARK   83  A    between atoms: _214  and  _215
REMARK   84  A    between atoms: _218  and  _220
REMARK   85  A    between atoms: _220  and  _221
REMARK   86  A    between atoms: _220  and  _223
REMARK   87  A    between atoms: _223  and  _224
REMARK   88  A    between atoms: _227  and  _229
REMARK   89  A    between atoms: _229  and  _230
REMARK   90  A    between atoms: _229  and  _232
REMARK   91  A    between atoms: _235  and  _237
REMARK   92  A    between atoms: _237  and  _238
REMARK   93  A    between atoms: _240  and  _242
REMARK   94  A    between atoms: _242  and  _243
REMARK   95  A    between atoms: _242  and  _245
REMARK   96  A    between atoms: _245  and  _246
REMARK   97  A    between atoms: _251  and  _253
REMARK   98  A    between atoms: _253  and  _254
REMARK   99  A    between atoms: _253  and  _256
REMARK  100  A    between atoms: _256  and  _257
REMARK  101  A    between atoms: _260  and  _262
REMARK  102  A    between atoms: _262  and  _263
REMARK  103  A    between atoms: _262  and  _265
REMARK  104  A    between atoms: _265  and  _266
REMARK  105  A    between atoms: _269  and  _271
REMARK  106  A    between atoms: _271  and  _272
REMARK  107  A    between atoms: _271  and  _274
REMARK  108  A    between atoms: _274  and  _275
REMARK  109  A    between atoms: _275  and  _276
REMARK  110  A    between atoms: _276  and  _277
REMARK  111  A    between atoms: _286  and  _288
REMARK  112  A    between atoms: _288  and  _289
REMARK  113  A    between atoms: _288  and  _291
REMARK  114  A    between atoms: _291  and  _292
REMARK  115  A    between atoms: _295  and  _297
REMARK  116  A    between atoms: _297  and  _298
REMARK  117  A    between atoms: _297  and  _300
REMARK  118  A    between atoms: _300  and  _301
REMARK  119  A    between atoms: _301  and  _302
REMARK  120  A    between atoms: _302  and  _303
REMARK  121  A    between atoms: _312  and  _314
REMARK  122  A    between atoms: _314  and  _315
REMARK  123  A    between atoms: _314  and  _317
REMARK  124  A    between atoms: _317  and  _318
REMARK  125  A    between atoms: _318  and  _319
REMARK  126  A    between atoms: _321  and  _323
REMARK  127  A    between atoms: _323  and  _324
REMARK  128  A    between atoms: _323  and  _326
REMARK  129  A    between atoms: _326  and  _327
REMARK  130  A    between atoms: _333  and  _335
REMARK  131  A    between atoms: _335  and  _336
REMARK  132  A    between atoms: _335  and  _338
REMARK  133  A    between atoms: _340  and  _342
REMARK  134  A    between atoms: _342  and  _343
REMARK  135  A    between atoms: _346  and  _348
REMARK  136  A    between atoms: _348  and  _349
REMARK  137  A    between atoms: _351  and  _353
REMARK  138  A    between atoms: _353  and  _354
REMARK  139  A    between atoms: _353  and  _356
REMARK  140  A    between atoms: _356  and  _357
REMARK  141  A    between atoms: _360  and  _362
REMARK  142  A    between atoms: _362  and  _363
REMARK  143  A    between atoms: _366  and  _368
REMARK  144  A    between atoms: _368  and  _369
REMARK  145  A    between atoms: _368  and  _371
REMARK  146  A    between atoms: _371  and  _372
REMARK  147  A    between atoms: _372  and  _494
REMARK  148  A    between atoms: _373  and  _375
REMARK  149  A    between atoms: _375  and  _376
REMARK  150  A    between atoms: _375  and  _378
REMARK  151  A    between atoms: _378  and  _379
REMARK  152  A    between atoms: _379  and  _380
REMARK  153  A    between atoms: _383  and  _385
REMARK  154  A    between atoms: _385  and  _386
REMARK  155  A    between atoms: _388  and  _390
REMARK  156  A    between atoms: _390  and  _391
REMARK  157  A    between atoms: _390  and  _393
REMARK  158  A    between atoms: _393  and  _394
REMARK  159  A    between atoms: _397  and  _399
REMARK  160  A    between atoms: _399  and  _400
REMARK  161  A    between atoms: _399  and  _402
REMARK  162  A    between atoms: _402  and  _403
REMARK  163  A    between atoms: _405  and  _407
REMARK  164  A    between atoms: _407  and  _408
REMARK  165  A    between atoms: _410  and  _412
REMARK  166  A    between atoms: _412  and  _413
REMARK  167  A    between atoms: _415  and  _417
REMARK  168  A    between atoms: _417  and  _418
REMARK  169  A    between atoms: _417  and  _420
REMARK  170  A    between atoms: _420  and  _421
REMARK  171  A    between atoms: _427  and  _429
REMARK  172  A    between atoms: _429  and  _430
REMARK  173  A    between atoms: _429  and  _432
REMARK  174  A    between atoms: _432  and  _433
REMARK  175  A    between atoms: _436  and  _438
REMARK  176  A    between atoms: _438  and  _439
REMARK  177  A    between atoms: _438  and  _441
REMARK  178  A    between atoms: _444  and  _446
REMARK  179  A    between atoms: _446  and  _447
REMARK  180  A    between atoms: _446  and  _449
REMARK  181  A    between atoms: _449  and  _450
REMARK  182  A    between atoms: _452  and  _454
REMARK  183  A    between atoms: _454  and  _455
REMARK  184  A    between atoms: _454  and  _457
REMARK  185  A    between atoms: _457  and  _458
REMARK  186  A    between atoms: _468  and  _470
REMARK  187  A    between atoms: _470  and  _471
REMARK  188  A    between atoms: _473  and  _475
REMARK  189  A    between atoms: _475  and  _476
REMARK  190  A    between atoms: _475  and  _478
REMARK  191  A    between atoms: _478  and  _479
REMARK  192  A    between atoms: _479  and  _480
REMARK  193  A    between atoms: _483  and  _485
REMARK  194  A    between atoms: _485  and  _486
REMARK  195  A    between atoms: _488  and  _490
REMARK  196  A    between atoms: _490  and  _491
REMARK  197  A    between atoms: _490  and  _493
REMARK  198  A    between atoms: _493  and  _494
REMARK  199  A    between atoms: _495  and  _497
REMARK  200  A    between atoms: _497  and  _498
REMARK  201  A    between atoms: _497  and  _500
REMARK  202  A    between atoms: _500  and  _501
REMARK  203  A    between atoms: _504  and  _506
REMARK  204  A    between atoms: _506  and  _507
REMARK  205  A    between atoms: _506  and  _509
REMARK  206  A    between atoms: _509  and  _510
REMARK  207  A    between atoms: _510  and  _511
REMARK  208  A    between atoms: _511  and  _512
REMARK  209  A    between atoms: _521  and  _523
REMARK  210  A    between atoms: _523  and  _524
REMARK  211  A    between atoms: _523  and  _526
REMARK  212  A    between atoms: _526  and  _527
REMARK  213  A    between atoms: _527  and  _528
REMARK  214  A    between atoms: _528  and  _529
REMARK  215  A    between atoms: _529  and  _530
REMARK  216  A    between atoms: _534  and  _536
REMARK  217  A    between atoms: _536  and  _537
REMARK  218  A    between atoms: _536  and  _539
REMARK  219  A    between atoms: _539  and  _540
REMARK  220  A    between atoms: _545  and  _546
REMARK  221  A    between atoms: _548  and  _550
REMARK  222  A    between atoms: _550  and  _551
REMARK  223  A    between atoms: _553  and  _555
REMARK  224  A    between atoms: _555  and  _556
REMARK  225  A    between atoms: _555  and  _558
REMARK  226  A    between atoms: _558  and  _559
REMARK  227  A    between atoms: _565  and  _567
REMARK  228  A    between atoms: _567  and  _568
REMARK  229  A    between atoms: _567  and  _570
REMARK  230  A    between atoms: _570  and  _571
REMARK  231  A    between atoms: _576  and  _577
REMARK  232  A    between atoms: _579  and  _581
REMARK  233  A    between atoms: _581  and  _582
REMARK  234  A    between atoms: _581  and  _584
REMARK  235  A    between atoms: _584  and  _585
REMARK                            x       y       z     vdW  Elec       q    Type
REMARK                         _______ _______ _______ _____ _____    ______ ____
ROOT
ATOM      1  O   HOH     1      10.302 -13.892  26.131  0.00  0.00    +0.000 OA
ENDROOT
TORSDOF 0
REMARK  Name = ../refined-set-2016/1z71/1z71_pocket.pdb
REMARK  235 active torsions:
REMARK  status: ('A' for Active; 'I' for Inactive)
REMARK    1  A    between atoms: _1  and  _5
REMARK    2  A    between atoms: _5  and  _6
REMARK    3  A    between atoms: _5  and  _8
REMARK    4  A    between atoms: _8  and  _9
REMARK    5  A    between atoms: _12  and  _14
REMARK    6  A    between atoms: _14  and  _15
REMARK    7  A    between atoms: _14  and  _17
REMARK    8  A    between atoms: _20  and  _22
REMARK    9  A    between atoms: _22  and  _23
REMARK   10  A    between atoms: _22  and  _25
REMARK   11  A    between atoms: _25  and  _26
REMARK   12  A    between atoms: _26  and  _61
REMARK   13  A    between atoms: _27  and  _29
REMARK   14  A    between atoms: _29  and  _30
REMARK   15  A    between atoms: _32  and  _34
REMARK   16  A    between atoms: _34  and  _35
REMARK   17  A    between atoms: _38  and  _40
REMARK   18  A    between atoms: _40  and  _41
REMARK   19  A    between atoms: _44  and  _46
REMARK   20  A    between atoms: _46  and  _47
REMARK   21  A    between atoms: _46  and  _49
REMARK   22  A    between atoms: _49  and  _50
REMARK   23  A    between atoms: _55  and  _57
REMARK   24  A    between atoms: _57  and  _58
REMARK   25  A    between atoms: _57  and  _60
REMARK   26  A    between atoms: _60  and  _61
REMARK   27  A    between atoms: _62  and  _64
REMARK   28  A    between atoms: _64  and  _65
REMARK   29  A    between atoms: _64  and  _67
REMARK   30  A    between atoms: _67  and  _68
REMARK   31  A    between atoms: _71  and  _73
REMARK   32  A    between atoms: _73  and  _74
REMARK   33  A    between atoms: _73  and  _76
REMARK   34  A    between atoms: _76  and  _77
REMARK   35  A    between atoms: _82  and  _83
REMARK   36  A    between atoms: _86  and  _87
REMARK   37  A    between atoms: _92  and  _94
REMARK   38  A    between atoms: _94  and  _95
REMARK   39  A    between atoms: _94  and  _97
REMARK   40  A    between atoms: _97  and  _98
REMARK   41  A    between atoms: _108  and  _110
REMARK   42  A    between atoms: _110  and  _111
REMARK   43  A    between atoms: _110  and  _113
REMARK   44  A    between atoms: _113  and  _114
REMARK   45  A    between atoms: _114  and  _115
REMARK   46  A    between atoms: _115  and  _116
REMARK   47  A    between atoms: _116  and  _117
REMARK   48  A    between atoms: _121  and  _123
REMARK   49  A    between atoms: _123  and  _124
REMARK   50  A    between atoms: _123  and  _126
REMARK   51  A    between atoms: _126  and  _127
REMARK   52  A    between atoms: _132  and  _133
REMARK   53  A    between atoms: _135  and  _137
REMARK   54  A    between atoms: _137  and  _138
REMARK   55  A    between atoms: _137  and  _140
REMARK   56  A    between atoms: _140  and  _141
REMARK   57  A    between atoms: _146  and  _148
REMARK   58  A    between atoms: _148  and  _149
REMARK   59  A    between atoms: _148  and  _151
REMARK   60  A    between atoms: _151  and  _152
REMARK   61  A    between atoms: _162  and  _164
REMARK   62  A    between atoms: _164  and  _165
REMARK   63  A    between atoms: _164  and  _167
REMARK   64  A    between atoms: _167  and  _168
REMARK   65  A    between atoms: _168  and  _169
REMARK   66  A    between atoms: _169  and  _170
REMARK   67  A    between atoms: _179  and  _181
REMARK   68  A    between atoms: _181  and  _182
REMARK   69  A    between atoms: _181  and  _184
REMARK   70  A    between atoms: _184  and  _185
REMARK   71  A    between atoms: _185  and  _186
REMARK   72  A    between atoms: _189  and  _191
REMARK   73  A    between atoms: _191  and  _192
REMARK   74  A    between atoms: _191  and  _194
REMARK   75  A    between atoms: _194  and  _195
REMARK   76  A    between atoms: _200  and  _202
REMARK   77  A    between atoms: _202  and  _203
REMARK   78  A    between atoms: _202  and  _205
REMARK   79  A    between atoms: _205  and  _206
REMARK   80  A    between atoms: _209  and  _211
REMARK   81  A    between atoms: _211  and  _212
REMARK   82  A    between atoms: _211  and  _214
REMARK   83  A    between atoms: _214  and  _215
REMARK   84  A    between atoms: _218  and  _220
REMARK   85  A    between atoms: _220  and  _221
REMARK   86  A    between atoms: _220  and  _223
REMARK   87  A    between atoms: _223  and  _224
REMARK   88  A    between atoms: _227  and  _229
REMARK   89  A    between atoms: _229  and  _230
REMARK   90  A    between atoms: _229  and  _232
REMARK   91  A    between atoms: _235  and  _237
REMARK   92  A    between atoms: _237  and  _238
REMARK   93  A    between atoms: _240  and  _242
REMARK   94  A    between atoms: _242  and  _243
REMARK   95  A    between atoms: _242  and  _245
REMARK   96  A    between atoms: _245  and  _246
REMARK   97  A    between atoms: _251  and  _253
REMARK   98  A    between atoms: _253  and  _254
REMARK   99  A    between atoms: _253  and  _256
REMARK  100  A    between atoms: _256  and  _257
REMARK  101  A    between atoms: _260  and  _262
REMARK  102  A    between atoms: _262  and  _263
REMARK  103  A    between atoms: _262  and  _265
REMARK  104  A    between atoms: _265  and  _266
REMARK  105  A    between atoms: _269  and  _271
REMARK  106  A    between atoms: _271  and  _272
REMARK  107  A    between atoms: _271  and  _274
REMARK  108  A    between atoms: _274  and  _275
REMARK  109  A    between atoms: _275  and  _276
REMARK  110  A    between atoms: _276  and  _277
REMARK  111  A    between atoms: _286  and  _288
REMARK  112  A    between atoms: _288  and  _289
REMARK  113  A    between atoms: _288  and  _291
REMARK  114  A    between atoms: _291  and  _292
REMARK  115  A    between atoms: _295  and  _297
REMARK  116  A    between atoms: _297  and  _298
REMARK  117  A    between atoms: _297  and  _300
REMARK  118  A    between atoms: _300  and  _301
REMARK  119  A    between atoms: _301  and  _302
REMARK  120  A    between atoms: _302  and  _303
REMARK  121  A    between atoms: _312  and  _314
REMARK  122  A    between atoms: _314  and  _315
REMARK  123  A    between atoms: _314  and  _317
REMARK  124  A    between atoms: _317  and  _318
REMARK  125  A    between atoms: _318  and  _319
REMARK  126  A    between atoms: _321  and  _323
REMARK  127  A    between atoms: _323  and  _324
REMARK  128  A    between atoms: _323  and  _326
REMARK  129  A    between atoms: _326  and  _327
REMARK  130  A    between atoms: _333  and  _335
REMARK  131  A    between atoms: _335  and  _336
REMARK  132  A    between atoms: _335  and  _338
REMARK  133  A    between atoms: _340  and  _342
REMARK  134  A    between atoms: _342  and  _343
REMARK  135  A    between atoms: _346  and  _348
REMARK  136  A    between atoms: _348  and  _349
REMARK  137  A    between atoms: _351  and  _353
REMARK  138  A    between atoms: _353  and  _354
REMARK  139  A    between atoms: _353  and  _356
REMARK  140  A    between atoms: _356  and  _357
REMARK  141  A    between atoms: _360  and  _362
REMARK  142  A    between atoms: _362  and  _363
REMARK  143  A    between atoms: _366  and  _368
REMARK  144  A    between atoms: _368  and  _369
REMARK  145  A    between atoms: _368  and  _371
REMARK  146  A    between atoms: _371  and  _372
REMARK  147  A    between atoms: _372  and  _494
REMARK  148  A    between atoms: _373  and  _375
REMARK  149  A    between atoms: _375  and  _376
REMARK  150  A    between atoms: _375  and  _378
REMARK  151  A    between atoms: _378  and  _379
REMARK  152  A    between atoms: _379  and  _380
REMARK  153  A    between atoms: _383  and  _385
REMARK  154  A    between atoms: _385  and  _386
REMARK  155  A    between atoms: _388  and  _390
REMARK  156  A    between atoms: _390  and  _391
REMARK  157  A    between atoms: _390  and  _393
REMARK  158  A    between atoms: _393  and  _394
REMARK  159  A    between atoms: _397  and  _399
REMARK  160  A    between atoms: _399  and  _400
REMARK  161  A    between atoms: _399  and  _402
REMARK  162  A    between atoms: _402  and  _403
REMARK  163  A    between atoms: _405  and  _407
REMARK  164  A    between atoms: _407  and  _408
REMARK  165  A    between atoms: _410  and  _412
REMARK  166  A    between atoms: _412  and  _413
REMARK  167  A    between atoms: _415  and  _417
REMARK  168  A    between atoms: _417  and  _418
REMARK  169  A    between atoms: _417  and  _420
REMARK  170  A    between atoms: _420  and  _421
REMARK  171  A    between atoms: _427  and  _429
REMARK  172  A    between atoms: _429  and  _430
REMARK  173  A    between atoms: _429  and  _432
REMARK  174  A    between atoms: _432  and  _433
REMARK  175  A    between atoms: _436  and  _438
REMARK  176  A    between atoms: _438  and  _439
REMARK  177  A    between atoms: _438  and  _441
REMARK  178  A    between atoms: _444  and  _446
REMARK  179  A    between atoms: _446  and  _447
REMARK  180  A    between atoms: _446  and  _449
REMARK  181  A    between atoms: _449  and  _450
REMARK  182  A    between atoms: _452  and  _454
REMARK  183  A    between atoms: _454  and  _455
REMARK  184  A    between atoms: _454  and  _457
REMARK  185  A    between atoms: _457  and  _458
REMARK  186  A    between atoms: _468  and  _470
REMARK  187  A    between atoms: _470  and  _471
REMARK  188  A    between atoms: _473  and  _475
REMARK  189  A    between atoms: _475  and  _476
REMARK  190  A    between atoms: _475  and  _478
REMARK  191  A    between atoms: _478  and  _479
REMARK  192  A    between atoms: _479  and  _480
REMARK  193  A    between atoms: _483  and  _485
REMARK  194  A    between atoms: _485  and  _486
REMARK  195  A    between atoms: _488  and  _490
REMARK  196  A    between atoms: _490  and  _491
REMARK  197  A    between atoms: _490  and  _493
REMARK  198  A    between atoms: _493  and  _494
REMARK  199  A    between atoms: _495  and  _497
REMARK  200  A    between atoms: _497  and  _498
REMARK  201  A    between atoms: _497  and  _500
REMARK  202  A    between atoms: _500  and  _501
REMARK  203  A    between atoms: _504  and  _506
REMARK  204  A    between atoms: _506  and  _507
REMARK  205  A    between atoms: _506  and  _509
REMARK  206  A    between atoms: _509  and  _510
REMARK  207  A    between atoms: _510  and  _511
REMARK  208  A    between atoms: _511  and  _512
REMARK  209  A    between atoms: _521  and  _523
REMARK  210  A    between atoms: _523  and  _524
REMARK  211  A    between atoms: _523  and  _526
REMARK  212  A    between atoms: _526  and  _527
REMARK  213  A    between atoms: _527  and  _528
REMARK  214  A    between atoms: _528  and  _529
REMARK  215  A    between atoms: _529  and  _530
REMARK  216  A    between atoms: _534  and  _536
REMARK  217  A    between atoms: _536  and  _537
REMARK  218  A    between atoms: _536  and  _539
REMARK  219  A    between atoms: _539  and  _540
REMARK  220  A    between atoms: _545  and  _546
REMARK  221  A    between atoms: _548  and  _550
REMARK  222  A    between atoms: _550  and  _551
REMARK  223  A    between atoms: _553  and  _555
REMARK  224  A    between atoms: _555  and  _556
REMARK  225  A    between atoms: _555  and  _558
REMARK  226  A    between atoms: _558  and  _559
REMARK  227  A    between atoms: _565  and  _567
REMARK  228  A    between atoms: _567  and  _568
REMARK  229  A    between atoms: _567  and  _570
REMARK  230  A    between atoms: _570  and  _571
REMARK  231  A    between atoms: _576  and  _577
REMARK  232  A    between atoms: _579  and  _581
REMARK  233  A    between atoms: _581  and  _582
REMARK  234  A    between atoms: _581  and  _584
REMARK  235  A    between atoms: _584  and  _585
REMARK                            x       y       z     vdW  Elec       q    Type
REMARK                         _______ _______ _______ _____ _____    ______ ____
ROOT
ATOM      1  O   HOH     1      16.962 -19.884  31.569  0.00  0.00    +0.000 OA
ENDROOT
TORSDOF 0
REMARK  Name = ../refined-set-2016/1z71/1z71_pocket.pdb
REMARK  235 active torsions:
REMARK  status: ('A' for Active; 'I' for Inactive)
REMARK    1  A    between atoms: _1  and  _5
REMARK    2  A    between atoms: _5  and  _6
REMARK    3  A    between atoms: _5  and  _8
REMARK    4  A    between atoms: _8  and  _9
REMARK    5  A    between atoms: _12  and  _14
REMARK    6  A    between atoms: _14  and  _15
REMARK    7  A    between atoms: _14  and  _17
REMARK    8  A    between atoms: _20  and  _22
REMARK    9  A    between atoms: _22  and  _23
REMARK   10  A    between atoms: _22  and  _25
REMARK   11  A    between atoms: _25  and  _26
REMARK   12  A    between atoms: _26  and  _61
REMARK   13  A    between atoms: _27  and  _29
REMARK   14  A    between atoms: _29  and  _30
REMARK   15  A    between atoms: _32  and  _34
REMARK   16  A    between atoms: _34  and  _35
REMARK   17  A    between atoms: _38  and  _40
REMARK   18  A    between atoms: _40  and  _41
REMARK   19  A    between atoms: _44  and  _46
REMARK   20  A    between atoms: _46  and  _47
REMARK   21  A    between atoms: _46  and  _49
REMARK   22  A    between atoms: _49  and  _50
REMARK   23  A    between atoms: _55  and  _57
REMARK   24  A    between atoms: _57  and  _58
REMARK   25  A    between atoms: _57  and  _60
REMARK   26  A    between atoms: _60  and  _61
REMARK   27  A    between atoms: _62  and  _64
REMARK   28  A    between atoms: _64  and  _65
REMARK   29  A    between atoms: _64  and  _67
REMARK   30  A    between atoms: _67  and  _68
REMARK   31  A    between atoms: _71  and  _73
REMARK   32  A    between atoms: _73  and  _74
REMARK   33  A    between atoms: _73  and  _76
REMARK   34  A    between atoms: _76  and  _77
REMARK   35  A    between atoms: _82  and  _83
REMARK   36  A    between atoms: _86  and  _87
REMARK   37  A    between atoms: _92  and  _94
REMARK   38  A    between atoms: _94  and  _95
REMARK   39  A    between atoms: _94  and  _97
REMARK   40  A    between atoms: _97  and  _98
REMARK   41  A    between atoms: _108  and  _110
REMARK   42  A    between atoms: _110  and  _111
REMARK   43  A    between atoms: _110  and  _113
REMARK   44  A    between atoms: _113  and  _114
REMARK   45  A    between atoms: _114  and  _115
REMARK   46  A    between atoms: _115  and  _116
REMARK   47  A    between atoms: _116  and  _117
REMARK   48  A    between atoms: _121  and  _123
REMARK   49  A    between atoms: _123  and  _124
REMARK   50  A    between atoms: _123  and  _126
REMARK   51  A    between atoms: _126  and  _127
REMARK   52  A    between atoms: _132  and  _133
REMARK   53  A    between atoms: _135  and  _137
REMARK   54  A    between atoms: _137  and  _138
REMARK   55  A    between atoms: _137  and  _140
REMARK   56  A    between atoms: _140  and  _141
REMARK   57  A    between atoms: _146  and  _148
REMARK   58  A    between atoms: _148  and  _149
REMARK   59  A    between atoms: _148  and  _151
REMARK   60  A    between atoms: _151  and  _152
REMARK   61  A    between atoms: _162  and  _164
REMARK   62  A    between atoms: _164  and  _165
REMARK   63  A    between atoms: _164  and  _167
REMARK   64  A    between atoms: _167  and  _168
REMARK   65  A    between atoms: _168  and  _169
REMARK   66  A    between atoms: _169  and  _170
REMARK   67  A    between atoms: _179  and  _181
REMARK   68  A    between atoms: _181  and  _182
REMARK   69  A    between atoms: _181  and  _184
REMARK   70  A    between atoms: _184  and  _185
REMARK   71  A    between atoms: _185  and  _186
REMARK   72  A    between atoms: _189  and  _191
REMARK   73  A    between atoms: _191  and  _192
REMARK   74  A    between atoms: _191  and  _194
REMARK   75  A    between atoms: _194  and  _195
REMARK   76  A    between atoms: _200  and  _202
REMARK   77  A    between atoms: _202  and  _203
REMARK   78  A    between atoms: _202  and  _205
REMARK   79  A    between atoms: _205  and  _206
REMARK   80  A    between atoms: _209  and  _211
REMARK   81  A    between atoms: _211  and  _212
REMARK   82  A    between atoms: _211  and  _214
REMARK   83  A    between atoms: _214  and  _215
REMARK   84  A    between atoms: _218  and  _220
REMARK   85  A    between atoms: _220  and  _221
REMARK   86  A    between atoms: _220  and  _223
REMARK   87  A    between atoms: _223  and  _224
REMARK   88  A    between atoms: _227  and  _229
REMARK   89  A    between atoms: _229  and  _230
REMARK   90  A    between atoms: _229  and  _232
REMARK   91  A    between atoms: _235  and  _237
REMARK   92  A    between atoms: _237  and  _238
REMARK   93  A    between atoms: _240  and  _242
REMARK   94  A    between atoms: _242  and  _243
REMARK   95  A    between atoms: _242  and  _245
REMARK   96  A    between atoms: _245  and  _246
REMARK   97  A    between atoms: _251  and  _253
REMARK   98  A    between atoms: _253  and  _254
REMARK   99  A    between atoms: _253  and  _256
REMARK  100  A    between atoms: _256  and  _257
REMARK  101  A    between atoms: _260  and  _262
REMARK  102  A    between atoms: _262  and  _263
REMARK  103  A    between atoms: _262  and  _265
REMARK  104  A    between atoms: _265  and  _266
REMARK  105  A    between atoms: _269  and  _271
REMARK  106  A    between atoms: _271  and  _272
REMARK  107  A    between atoms: _271  and  _274
REMARK  108  A    between atoms: _274  and  _275
REMARK  109  A    between atoms: _275  and  _276
REMARK  110  A    between atoms: _276  and  _277
REMARK  111  A    between atoms: _286  and  _288
REMARK  112  A    between atoms: _288  and  _289
REMARK  113  A    between atoms: _288  and  _291
REMARK  114  A    between atoms: _291  and  _292
REMARK  115  A    between atoms: _295  and  _297
REMARK  116  A    between atoms: _297  and  _298
REMARK  117  A    between atoms: _297  and  _300
REMARK  118  A    between atoms: _300  and  _301
REMARK  119  A    between atoms: _301  and  _302
REMARK  120  A    between atoms: _302  and  _303
REMARK  121  A    between atoms: _312  and  _314
REMARK  122  A    between atoms: _314  and  _315
REMARK  123  A    between atoms: _314  and  _317
REMARK  124  A    between atoms: _317  and  _318
REMARK  125  A    between atoms: _318  and  _319
REMARK  126  A    between atoms: _321  and  _323
REMARK  127  A    between atoms: _323  and  _324
REMARK  128  A    between atoms: _323  and  _326
REMARK  129  A    between atoms: _326  and  _327
REMARK  130  A    between atoms: _333  and  _335
REMARK  131  A    between atoms: _335  and  _336
REMARK  132  A    between atoms: _335  and  _338
REMARK  133  A    between atoms: _340  and  _342
REMARK  134  A    between atoms: _342  and  _343
REMARK  135  A    between atoms: _346  and  _348
REMARK  136  A    between atoms: _348  and  _349
REMARK  137  A    between atoms: _351  and  _353
REMARK  138  A    between atoms: _353  and  _354
REMARK  139  A    between atoms: _353  and  _356
REMARK  140  A    between atoms: _356  and  _357
REMARK  141  A    between atoms: _360  and  _362
REMARK  142  A    between atoms: _362  and  _363
REMARK  143  A    between atoms: _366  and  _368
REMARK  144  A    between atoms: _368  and  _369
REMARK  145  A    between atoms: _368  and  _371
REMARK  146  A    between atoms: _371  and  _372
REMARK  147  A    between atoms: _372  and  _494
REMARK  148  A    between atoms: _373  and  _375
REMARK  149  A    between atoms: _375  and  _376
REMARK  150  A    between atoms: _375  and  _378
REMARK  151  A    between atoms: _378  and  _379
REMARK  152  A    between atoms: _379  and  _380
REMARK  153  A    between atoms: _383  and  _385
REMARK  154  A    between atoms: _385  and  _386
REMARK  155  A    between atoms: _388  and  _390
REMARK  156  A    between atoms: _390  and  _391
REMARK  157  A    between atoms: _390  and  _393
REMARK  158  A    between atoms: _393  and  _394
REMARK  159  A    between atoms: _397  and  _399
REMARK  160  A    between atoms: _399  and  _400
REMARK  161  A    between atoms: _399  and  _402
REMARK  162  A    between atoms: _402  and  _403
REMARK  163  A    between atoms: _405  and  _407
REMARK  164  A    between atoms: _407  and  _408
REMARK  165  A    between atoms: _410  and  _412
REMARK  166  A    between atoms: _412  and  _413
REMARK  167  A    between atoms: _415  and  _417
REMARK  168  A    between atoms: _417  and  _418
REMARK  169  A    between atoms: _417  and  _420
REMARK  170  A    between atoms: _420  and  _421
REMARK  171  A    between atoms: _427  and  _429
REMARK  172  A    between atoms: _429  and  _430
REMARK  173  A    between atoms: _429  and  _432
REMARK  174  A    between atoms: _432  and  _433
REMARK  175  A    between atoms: _436  and  _438
REMARK  176  A    between atoms: _438  and  _439
REMARK  177  A    between atoms: _438  and  _441
REMARK  178  A    between atoms: _444  and  _446
REMARK  179  A    between atoms: _446  and  _447
REMARK  180  A    between atoms: _446  and  _449
REMARK  181  A    between atoms: _449  and  _450
REMARK  182  A    between atoms: _452  and  _454
REMARK  183  A    between atoms: _454  and  _455
REMARK  184  A    between atoms: _454  and  _457
REMARK  185  A    between atoms: _457  and  _458
REMARK  186  A    between atoms: _468  and  _470
REMARK  187  A    between atoms: _470  and  _471
REMARK  188  A    between atoms: _473  and  _475
REMARK  189  A    between atoms: _475  and  _476
REMARK  190  A    between atoms: _475  and  _478
REMARK  191  A    between atoms: _478  and  _479
REMARK  192  A    between atoms: _479  and  _480
REMARK  193  A    between atoms: _483  and  _485
REMARK  194  A    between atoms: _485  and  _486
REMARK  195  A    between atoms: _488  and  _490
REMARK  196  A    between atoms: _490  and  _491
REMARK  197  A    between atoms: _490  and  _493
REMARK  198  A    between atoms: _493  and  _494
REMARK  199  A    between atoms: _495  and  _497
REMARK  200  A    between atoms: _497  and  _498
REMARK  201  A    between atoms: _497  and  _500
REMARK  202  A    between atoms: _500  and  _501
REMARK  203  A    between atoms: _504  and  _506
REMARK  204  A    between atoms: _506  and  _507
REMARK  205  A    between atoms: _506  and  _509
REMARK  206  A    between atoms: _509  and  _510
REMARK  207  A    between atoms: _510  and  _511
REMARK  208  A    between atoms: _511  and  _512
REMARK  209  A    between atoms: _521  and  _523
REMARK  210  A    between atoms: _523  and  _524
REMARK  211  A    between atoms: _523  and  _526
REMARK  212  A    between atoms: _526  and  _527
REMARK  213  A    between atoms: _527  and  _528
REMARK  214  A    between atoms: _528  and  _529
REMARK  215  A    between atoms: _529  and  _530
REMARK  216  A    between atoms: _534  and  _536
REMARK  217  A    between atoms: _536  and  _537
REMARK  218  A    between atoms: _536  and  _539
REMARK  219  A    between atoms: _539  and  _540
REMARK  220  A    between atoms: _545  and  _546
REMARK  221  A    between atoms: _548  and  _550
REMARK  222  A    between atoms: _550  and  _551
REMARK  223  A    between atoms: _553  and  _555
REMARK  224  A    between atoms: _555  and  _556
REMARK  225  A    between atoms: _555  and  _558
REMARK  226  A    between atoms: _558  and  _559
REMARK  227  A    between atoms: _565  and  _567
REMARK  228  A    between atoms: _567  and  _568
REMARK  229  A    between atoms: _567  and  _570
REMARK  230  A    between atoms: _570  and  _571
REMARK  231  A    between atoms: _576  and  _577
REMARK  232  A    between atoms: _579  and  _581
REMARK  233  A    between atoms: _581  and  _582
REMARK  234  A    between atoms: _581  and  _584
REMARK  235  A    between atoms: _584  and  _585
REMARK                            x       y       z     vdW  Elec       q    Type
REMARK                         _______ _______ _______ _____ _____    ______ ____
ROOT
ATOM      1  O   HOH     1      24.861 -15.698  31.293  0.00  0.00    +0.000 OA
ENDROOT
TORSDOF 0
REMARK  Name = ../refined-set-2016/1z71/1z71_pocket.pdb
REMARK  235 active torsions:
REMARK  status: ('A' for Active; 'I' for Inactive)
REMARK    1  A    between atoms: _1  and  _5
REMARK    2  A    between atoms: _5  and  _6
REMARK    3  A    between atoms: _5  and  _8
REMARK    4  A    between atoms: _8  and  _9
REMARK    5  A    between atoms: _12  and  _14
REMARK    6  A    between atoms: _14  and  _15
REMARK    7  A    between atoms: _14  and  _17
REMARK    8  A    between atoms: _20  and  _22
REMARK    9  A    between atoms: _22  and  _23
REMARK   10  A    between atoms: _22  and  _25
REMARK   11  A    between atoms: _25  and  _26
REMARK   12  A    between atoms: _26  and  _61
REMARK   13  A    between atoms: _27  and  _29
REMARK   14  A    between atoms: _29  and  _30
REMARK   15  A    between atoms: _32  and  _34
REMARK   16  A    between atoms: _34  and  _35
REMARK   17  A    between atoms: _38  and  _40
REMARK   18  A    between atoms: _40  and  _41
REMARK   19  A    between atoms: _44  and  _46
REMARK   20  A    between atoms: _46  and  _47
REMARK   21  A    between atoms: _46  and  _49
REMARK   22  A    between atoms: _49  and  _50
REMARK   23  A    between atoms: _55  and  _57
REMARK   24  A    between atoms: _57  and  _58
REMARK   25  A    between atoms: _57  and  _60
REMARK   26  A    between atoms: _60  and  _61
REMARK   27  A    between atoms: _62  and  _64
REMARK   28  A    between atoms: _64  and  _65
REMARK   29  A    between atoms: _64  and  _67
REMARK   30  A    between atoms: _67  and  _68
REMARK   31  A    between atoms: _71  and  _73
REMARK   32  A    between atoms: _73  and  _74
REMARK   33  A    between atoms: _73  and  _76
REMARK   34  A    between atoms: _76  and  _77
REMARK   35  A    between atoms: _82  and  _83
REMARK   36  A    between atoms: _86  and  _87
REMARK   37  A    between atoms: _92  and  _94
REMARK   38  A    between atoms: _94  and  _95
REMARK   39  A    between atoms: _94  and  _97
REMARK   40  A    between atoms: _97  and  _98
REMARK   41  A    between atoms: _108  and  _110
REMARK   42  A    between atoms: _110  and  _111
REMARK   43  A    between atoms: _110  and  _113
REMARK   44  A    between atoms: _113  and  _114
REMARK   45  A    between atoms: _114  and  _115
REMARK   46  A    between atoms: _115  and  _116
REMARK   47  A    between atoms: _116  and  _117
REMARK   48  A    between atoms: _121  and  _123
REMARK   49  A    between atoms: _123  and  _124
REMARK   50  A    between atoms: _123  and  _126
REMARK   51  A    between atoms: _126  and  _127
REMARK   52  A    between atoms: _132  and  _133
REMARK   53  A    between atoms: _135  and  _137
REMARK   54  A    between atoms: _137  and  _138
REMARK   55  A    between atoms: _137  and  _140
REMARK   56  A    between atoms: _140  and  _141
REMARK   57  A    between atoms: _146  and  _148
REMARK   58  A    between atoms: _148  and  _149
REMARK   59  A    between atoms: _148  and  _151
REMARK   60  A    between atoms: _151  and  _152
REMARK   61  A    between atoms: _162  and  _164
REMARK   62  A    between atoms: _164  and  _165
REMARK   63  A    between atoms: _164  and  _167
REMARK   64  A    between atoms: _167  and  _168
REMARK   65  A    between atoms: _168  and  _169
REMARK   66  A    between atoms: _169  and  _170
REMARK   67  A    between atoms: _179  and  _181
REMARK   68  A    between atoms: _181  and  _182
REMARK   69  A    between atoms: _181  and  _184
REMARK   70  A    between atoms: _184  and  _185
REMARK   71  A    between atoms: _185  and  _186
REMARK   72  A    between atoms: _189  and  _191
REMARK   73  A    between atoms: _191  and  _192
REMARK   74  A    between atoms: _191  and  _194
REMARK   75  A    between atoms: _194  and  _195
REMARK   76  A    between atoms: _200  and  _202
REMARK   77  A    between atoms: _202  and  _203
REMARK   78  A    between atoms: _202  and  _205
REMARK   79  A    between atoms: _205  and  _206
REMARK   80  A    between atoms: _209  and  _211
REMARK   81  A    between atoms: _211  and  _212
REMARK   82  A    between atoms: _211  and  _214
REMARK   83  A    between atoms: _214  and  _215
REMARK   84  A    between atoms: _218  and  _220
REMARK   85  A    between atoms: _220  and  _221
REMARK   86  A    between atoms: _220  and  _223
REMARK   87  A    between atoms: _223  and  _224
REMARK   88  A    between atoms: _227  and  _229
REMARK   89  A    between atoms: _229  and  _230
REMARK   90  A    between atoms: _229  and  _232
REMARK   91  A    between atoms: _235  and  _237
REMARK   92  A    between atoms: _237  and  _238
REMARK   93  A    between atoms: _240  and  _242
REMARK   94  A    between atoms: _242  and  _243
REMARK   95  A    between atoms: _242  and  _245
REMARK   96  A    between atoms: _245  and  _246
REMARK   97  A    between atoms: _251  and  _253
REMARK   98  A    between atoms: _253  and  _254
REMARK   99  A    between atoms: _253  and  _256
REMARK  100  A    between atoms: _256  and  _257
REMARK  101  A    between atoms: _260  and  _262
REMARK  102  A    between atoms: _262  and  _263
REMARK  103  A    between atoms: _262  and  _265
REMARK  104  A    between atoms: _265  and  _266
REMARK  105  A    between atoms: _269  and  _271
REMARK  106  A    between atoms: _271  and  _272
REMARK  107  A    between atoms: _271  and  _274
REMARK  108  A    between atoms: _274  and  _275
REMARK  109  A    between atoms: _275  and  _276
REMARK  110  A    between atoms: _276  and  _277
REMARK  111  A    between atoms: _286  and  _288
REMARK  112  A    between atoms: _288  and  _289
REMARK  113  A    between atoms: _288  and  _291
REMARK  114  A    between atoms: _291  and  _292
REMARK  115  A    between atoms: _295  and  _297
REMARK  116  A    between atoms: _297  and  _298
REMARK  117  A    between atoms: _297  and  _300
REMARK  118  A    between atoms: _300  and  _301
REMARK  119  A    between atoms: _301  and  _302
REMARK  120  A    between atoms: _302  and  _303
REMARK  121  A    between atoms: _312  and  _314
REMARK  122  A    between atoms: _314  and  _315
REMARK  123  A    between atoms: _314  and  _317
REMARK  124  A    between atoms: _317  and  _318
REMARK  125  A    between atoms: _318  and  _319
REMARK  126  A    between atoms: _321  and  _323
REMARK  127  A    between atoms: _323  and  _324
REMARK  128  A    between atoms: _323  and  _326
REMARK  129  A    between atoms: _326  and  _327
REMARK  130  A    between atoms: _333  and  _335
REMARK  131  A    between atoms: _335  and  _336
REMARK  132  A    between atoms: _335  and  _338
REMARK  133  A    between atoms: _340  and  _342
REMARK  134  A    between atoms: _342  and  _343
REMARK  135  A    between atoms: _346  and  _348
REMARK  136  A    between atoms: _348  and  _349
REMARK  137  A    between atoms: _351  and  _353
REMARK  138  A    between atoms: _353  and  _354
REMARK  139  A    between atoms: _353  and  _356
REMARK  140  A    between atoms: _356  and  _357
REMARK  141  A    between atoms: _360  and  _362
REMARK  142  A    between atoms: _362  and  _363
REMARK  143  A    between atoms: _366  and  _368
REMARK  144  A    between atoms: _368  and  _369
REMARK  145  A    between atoms: _368  and  _371
REMARK  146  A    between atoms: _371  and  _372
REMARK  147  A    between atoms: _372  and  _494
REMARK  148  A    between atoms: _373  and  _375
REMARK  149  A    between atoms: _375  and  _376
REMARK  150  A    between atoms: _375  and  _378
REMARK  151  A    between atoms: _378  and  _379
REMARK  152  A    between atoms: _379  and  _380
REMARK  153  A    between atoms: _383  and  _385
REMARK  154  A    between atoms: _385  and  _386
REMARK  155  A    between atoms: _388  and  _390
REMARK  156  A    between atoms: _390  and  _391
REMARK  157  A    between atoms: _390  and  _393
REMARK  158  A    between atoms: _393  and  _394
REMARK  159  A    between atoms: _397  and  _399
REMARK  160  A    between atoms: _399  and  _400
REMARK  161  A    between atoms: _399  and  _402
REMARK  162  A    between atoms: _402  and  _403
REMARK  163  A    between atoms: _405  and  _407
REMARK  164  A    between atoms: _407  and  _408
REMARK  165  A    between atoms: _410  and  _412
REMARK  166  A    between atoms: _412  and  _413
REMARK  167  A    between atoms: _415  and  _417
REMARK  168  A    between atoms: _417  and  _418
REMARK  169  A    between atoms: _417  and  _420
REMARK  170  A    between atoms: _420  and  _421
REMARK  171  A    between atoms: _427  and  _429
REMARK  172  A    between atoms: _429  and  _430
REMARK  173  A    between atoms: _429  and  _432
REMARK  174  A    between atoms: _432  and  _433
REMARK  175  A    between atoms: _436  and  _438
REMARK  176  A    between atoms: _438  and  _439
REMARK  177  A    between atoms: _438  and  _441
REMARK  178  A    between atoms: _444  and  _446
REMARK  179  A    between atoms: _446  and  _447
REMARK  180  A    between atoms: _446  and  _449
REMARK  181  A    between atoms: _449  and  _450
REMARK  182  A    between atoms: _452  and  _454
REMARK  183  A    between atoms: _454  and  _455
REMARK  184  A    between atoms: _454  and  _457
REMARK  185  A    between atoms: _457  and  _458
REMARK  186  A    between atoms: _468  and  _470
REMARK  187  A    between atoms: _470  and  _471
REMARK  188  A    between atoms: _473  and  _475
REMARK  189  A    between atoms: _475  and  _476
REMARK  190  A    between atoms: _475  and  _478
REMARK  191  A    between atoms: _478  and  _479
REMARK  192  A    between atoms: _479  and  _480
REMARK  193  A    between atoms: _483  and  _485
REMARK  194  A    between atoms: _485  and  _486
REMARK  195  A    between atoms: _488  and  _490
REMARK  196  A    between atoms: _490  and  _491
REMARK  197  A    between atoms: _490  and  _493
REMARK  198  A    between atoms: _493  and  _494
REMARK  199  A    between atoms: _495  and  _497
REMARK  200  A    between atoms: _497  and  _498
REMARK  201  A    between atoms: _497  and  _500
REMARK  202  A    between atoms: _500  and  _501
REMARK  203  A    between atoms: _504  and  _506
REMARK  204  A    between atoms: _506  and  _507
REMARK  205  A    between atoms: _506  and  _509
REMARK  206  A    between atoms: _509  and  _510
REMARK  207  A    between atoms: _510  and  _511
REMARK  208  A    between atoms: _511  and  _512
REMARK  209  A    between atoms: _521  and  _523
REMARK  210  A    between atoms: _523  and  _524
REMARK  211  A    between atoms: _523  and  _526
REMARK  212  A    between atoms: _526  and  _527
REMARK  213  A    between atoms: _527  and  _528
REMARK  214  A    between atoms: _528  and  _529
REMARK  215  A    between atoms: _529  and  _530
REMARK  216  A    between atoms: _534  and  _536
REMARK  217  A    between atoms: _536  and  _537
REMARK  218  A    between atoms: _536  and  _539
REMARK  219  A    between atoms: _539  and  _540
REMARK  220  A    between atoms: _545  and  _546
REMARK  221  A    between atoms: _548  and  _550
REMARK  222  A    between atoms: _550  and  _551
REMARK  223  A    between atoms: _553  and  _555
REMARK  224  A    between atoms: _555  and  _556
REMARK  225  A    between atoms: _555  and  _558
REMARK  226  A    between atoms: _558  and  _559
REMARK  227  A    between atoms: _565  and  _567
REMARK  228  A    between atoms: _567  and  _568
REMARK  229  A    between atoms: _567  and  _570
REMARK  230  A    between atoms: _570  and  _571
REMARK  231  A    between atoms: _576  and  _577
REMARK  232  A    between atoms: _579  and  _581
REMARK  233  A    between atoms: _581  and  _582
REMARK  234  A    between atoms: _581  and  _584
REMARK  235  A    between atoms: _584  and  _585
REMARK                            x       y       z     vdW  Elec       q    Type
REMARK                         _______ _______ _______ _____ _____    ______ ____
ROOT
ATOM      1  O   HOH     1      10.303 -17.740  17.977  0.00  0.00    +0.000 OA
ENDROOT
TORSDOF 0
REMARK  Name = ../refined-set-2016/1z71/1z71_pocket.pdb
REMARK  235 active torsions:
REMARK  status: ('A' for Active; 'I' for Inactive)
REMARK    1  A    between atoms: _1  and  _5
REMARK    2  A    between atoms: _5  and  _6
REMARK    3  A    between atoms: _5  and  _8
REMARK    4  A    between atoms: _8  and  _9
REMARK    5  A    between atoms: _12  and  _14
REMARK    6  A    between atoms: _14  and  _15
REMARK    7  A    between atoms: _14  and  _17
REMARK    8  A    between atoms: _20  and  _22
REMARK    9  A    between atoms: _22  and  _23
REMARK   10  A    between atoms: _22  and  _25
REMARK   11  A    between atoms: _25  and  _26
REMARK   12  A    between atoms: _26  and  _61
REMARK   13  A    between atoms: _27  and  _29
REMARK   14  A    between atoms: _29  and  _30
REMARK   15  A    between atoms: _32  and  _34
REMARK   16  A    between atoms: _34  and  _35
REMARK   17  A    between atoms: _38  and  _40
REMARK   18  A    between atoms: _40  and  _41
REMARK   19  A    between atoms: _44  and  _46
REMARK   20  A    between atoms: _46  and  _47
REMARK   21  A    between atoms: _46  and  _49
REMARK   22  A    between atoms: _49  and  _50
REMARK   23  A    between atoms: _55  and  _57
REMARK   24  A    between atoms: _57  and  _58
REMARK   25  A    between atoms: _57  and  _60
REMARK   26  A    between atoms: _60  and  _61
REMARK   27  A    between atoms: _62  and  _64
REMARK   28  A    between atoms: _64  and  _65
REMARK   29  A    between atoms: _64  and  _67
REMARK   30  A    between atoms: _67  and  _68
REMARK   31  A    between atoms: _71  and  _73
REMARK   32  A    between atoms: _73  and  _74
REMARK   33  A    between atoms: _73  and  _76
REMARK   34  A    between atoms: _76  and  _77
REMARK   35  A    between atoms: _82  and  _83
REMARK   36  A    between atoms: _86  and  _87
REMARK   37  A    between atoms: _92  and  _94
REMARK   38  A    between atoms: _94  and  _95
REMARK   39  A    between atoms: _94  and  _97
REMARK   40  A    between atoms: _97  and  _98
REMARK   41  A    between atoms: _108  and  _110
REMARK   42  A    between atoms: _110  and  _111
REMARK   43  A    between atoms: _110  and  _113
REMARK   44  A    between atoms: _113  and  _114
REMARK   45  A    between atoms: _114  and  _115
REMARK   46  A    between atoms: _115  and  _116
REMARK   47  A    between atoms: _116  and  _117
REMARK   48  A    between atoms: _121  and  _123
REMARK   49  A    between atoms: _123  and  _124
REMARK   50  A    between atoms: _123  and  _126
REMARK   51  A    between atoms: _126  and  _127
REMARK   52  A    between atoms: _132  and  _133
REMARK   53  A    between atoms: _135  and  _137
REMARK   54  A    between atoms: _137  and  _138
REMARK   55  A    between atoms: _137  and  _140
REMARK   56  A    between atoms: _140  and  _141
REMARK   57  A    between atoms: _146  and  _148
REMARK   58  A    between atoms: _148  and  _149
REMARK   59  A    between atoms: _148  and  _151
REMARK   60  A    between atoms: _151  and  _152
REMARK   61  A    between atoms: _162  and  _164
REMARK   62  A    between atoms: _164  and  _165
REMARK   63  A    between atoms: _164  and  _167
REMARK   64  A    between atoms: _167  and  _168
REMARK   65  A    between atoms: _168  and  _169
REMARK   66  A    between atoms: _169  and  _170
REMARK   67  A    between atoms: _179  and  _181
REMARK   68  A    between atoms: _181  and  _182
REMARK   69  A    between atoms: _181  and  _184
REMARK   70  A    between atoms: _184  and  _185
REMARK   71  A    between atoms: _185  and  _186
REMARK   72  A    between atoms: _189  and  _191
REMARK   73  A    between atoms: _191  and  _192
REMARK   74  A    between atoms: _191  and  _194
REMARK   75  A    between atoms: _194  and  _195
REMARK   76  A    between atoms: _200  and  _202
REMARK   77  A    between atoms: _202  and  _203
REMARK   78  A    between atoms: _202  and  _205
REMARK   79  A    between atoms: _205  and  _206
REMARK   80  A    between atoms: _209  and  _211
REMARK   81  A    between atoms: _211  and  _212
REMARK   82  A    between atoms: _211  and  _214
REMARK   83  A    between atoms: _214  and  _215
REMARK   84  A    between atoms: _218  and  _220
REMARK   85  A    between atoms: _220  and  _221
REMARK   86  A    between atoms: _220  and  _223
REMARK   87  A    between atoms: _223  and  _224
REMARK   88  A    between atoms: _227  and  _229
REMARK   89  A    between atoms: _229  and  _230
REMARK   90  A    between atoms: _229  and  _232
REMARK   91  A    between atoms: _235  and  _237
REMARK   92  A    between atoms: _237  and  _238
REMARK   93  A    between atoms: _240  and  _242
REMARK   94  A    between atoms: _242  and  _243
REMARK   95  A    between atoms: _242  and  _245
REMARK   96  A    between atoms: _245  and  _246
REMARK   97  A    between atoms: _251  and  _253
REMARK   98  A    between atoms: _253  and  _254
REMARK   99  A    between atoms: _253  and  _256
REMARK  100  A    between atoms: _256  and  _257
REMARK  101  A    between atoms: _260  and  _262
REMARK  102  A    between atoms: _262  and  _263
REMARK  103  A    between atoms: _262  and  _265
REMARK  104  A    between atoms: _265  and  _266
REMARK  105  A    between atoms: _269  and  _271
REMARK  106  A    between atoms: _271  and  _272
REMARK  107  A    between atoms: _271  and  _274
REMARK  108  A    between atoms: _274  and  _275
REMARK  109  A    between atoms: _275  and  _276
REMARK  110  A    between atoms: _276  and  _277
REMARK  111  A    between atoms: _286  and  _288
REMARK  112  A    between atoms: _288  and  _289
REMARK  113  A    between atoms: _288  and  _291
REMARK  114  A    between atoms: _291  and  _292
REMARK  115  A    between atoms: _295  and  _297
REMARK  116  A    between atoms: _297  and  _298
REMARK  117  A    between atoms: _297  and  _300
REMARK  118  A    between atoms: _300  and  _301
REMARK  119  A    between atoms: _301  and  _302
REMARK  120  A    between atoms: _302  and  _303
REMARK  121  A    between atoms: _312  and  _314
REMARK  122  A    between atoms: _314  and  _315
REMARK  123  A    between atoms: _314  and  _317
REMARK  124  A    between atoms: _317  and  _318
REMARK  125  A    between atoms: _318  and  _319
REMARK  126  A    between atoms: _321  and  _323
REMARK  127  A    between atoms: _323  and  _324
REMARK  128  A    between atoms: _323  and  _326
REMARK  129  A    between atoms: _326  and  _327
REMARK  130  A    between atoms: _333  and  _335
REMARK  131  A    between atoms: _335  and  _336
REMARK  132  A    between atoms: _335  and  _338
REMARK  133  A    between atoms: _340  and  _342
REMARK  134  A    between atoms: _342  and  _343
REMARK  135  A    between atoms: _346  and  _348
REMARK  136  A    between atoms: _348  and  _349
REMARK  137  A    between atoms: _351  and  _353
REMARK  138  A    between atoms: _353  and  _354
REMARK  139  A    between atoms: _353  and  _356
REMARK  140  A    between atoms: _356  and  _357
REMARK  141  A    between atoms: _360  and  _362
REMARK  142  A    between atoms: _362  and  _363
REMARK  143  A    between atoms: _366  and  _368
REMARK  144  A    between atoms: _368  and  _369
REMARK  145  A    between atoms: _368  and  _371
REMARK  146  A    between atoms: _371  and  _372
REMARK  147  A    between atoms: _372  and  _494
REMARK  148  A    between atoms: _373  and  _375
REMARK  149  A    between atoms: _375  and  _376
REMARK  150  A    between atoms: _375  and  _378
REMARK  151  A    between atoms: _378  and  _379
REMARK  152  A    between atoms: _379  and  _380
REMARK  153  A    between atoms: _383  and  _385
REMARK  154  A    between atoms: _385  and  _386
REMARK  155  A    between atoms: _388  and  _390
REMARK  156  A    between atoms: _390  and  _391
REMARK  157  A    between atoms: _390  and  _393
REMARK  158  A    between atoms: _393  and  _394
REMARK  159  A    between atoms: _397  and  _399
REMARK  160  A    between atoms: _399  and  _400
REMARK  161  A    between atoms: _399  and  _402
REMARK  162  A    between atoms: _402  and  _403
REMARK  163  A    between atoms: _405  and  _407
REMARK  164  A    between atoms: _407  and  _408
REMARK  165  A    between atoms: _410  and  _412
REMARK  166  A    between atoms: _412  and  _413
REMARK  167  A    between atoms: _415  and  _417
REMARK  168  A    between atoms: _417  and  _418
REMARK  169  A    between atoms: _417  and  _420
REMARK  170  A    between atoms: _420  and  _421
REMARK  171  A    between atoms: _427  and  _429
REMARK  172  A    between atoms: _429  and  _430
REMARK  173  A    between atoms: _429  and  _432
REMARK  174  A    between atoms: _432  and  _433
REMARK  175  A    between atoms: _436  and  _438
REMARK  176  A    between atoms: _438  and  _439
REMARK  177  A    between atoms: _438  and  _441
REMARK  178  A    between atoms: _444  and  _446
REMARK  179  A    between atoms: _446  and  _447
REMARK  180  A    between atoms: _446  and  _449
REMARK  181  A    between atoms: _449  and  _450
REMARK  182  A    between atoms: _452  and  _454
REMARK  183  A    between atoms: _454  and  _455
REMARK  184  A    between atoms: _454  and  _457
REMARK  185  A    between atoms: _457  and  _458
REMARK  186  A    between atoms: _468  and  _470
REMARK  187  A    between atoms: _470  and  _471
REMARK  188  A    between atoms: _473  and  _475
REMARK  189  A    between atoms: _475  and  _476
REMARK  190  A    between atoms: _475  and  _478
REMARK  191  A    between atoms: _478  and  _479
REMARK  192  A    between atoms: _479  and  _480
REMARK  193  A    between atoms: _483  and  _485
REMARK  194  A    between atoms: _485  and  _486
REMARK  195  A    between atoms: _488  and  _490
REMARK  196  A    between atoms: _490  and  _491
REMARK  197  A    between atoms: _490  and  _493
REMARK  198  A    between atoms: _493  and  _494
REMARK  199  A    between atoms: _495  and  _497
REMARK  200  A    between atoms: _497  and  _498
REMARK  201  A    between atoms: _497  and  _500
REMARK  202  A    between atoms: _500  and  _501
REMARK  203  A    between atoms: _504  and  _506
REMARK  204  A    between atoms: _506  and  _507
REMARK  205  A    between atoms: _506  and  _509
REMARK  206  A    between atoms: _509  and  _510
REMARK  207  A    between atoms: _510  and  _511
REMARK  208  A    between atoms: _511  and  _512
REMARK  209  A    between atoms: _521  and  _523
REMARK  210  A    between atoms: _523  and  _524
REMARK  211  A    between atoms: _523  and  _526
REMARK  212  A    between atoms: _526  and  _527
REMARK  213  A    between atoms: _527  and  _528
REMARK  214  A    between atoms: _528  and  _529
REMARK  215  A    between atoms: _529  and  _530
REMARK  216  A    between atoms: _534  and  _536
REMARK  217  A    between atoms: _536  and  _537
REMARK  218  A    between atoms: _536  and  _539
REMARK  219  A    between atoms: _539  and  _540
REMARK  220  A    between atoms: _545  and  _546
REMARK  221  A    between atoms: _548  and  _550
REMARK  222  A    between atoms: _550  and  _551
REMARK  223  A    between atoms: _553  and  _555
REMARK  224  A    between atoms: _555  and  _556
REMARK  225  A    between atoms: _555  and  _558
REMARK  226  A    between atoms: _558  and  _559
REMARK  227  A    between atoms: _565  and  _567
REMARK  228  A    between atoms: _567  and  _568
REMARK  229  A    between atoms: _567  and  _570
REMARK  230  A    between atoms: _570  and  _571
REMARK  231  A    between atoms: _576  and  _577
REMARK  232  A    between atoms: _579  and  _581
REMARK  233  A    between atoms: _581  and  _582
REMARK  234  A    between atoms: _581  and  _584
REMARK  235  A    between atoms: _584  and  _585
REMARK                            x       y       z     vdW  Elec       q    Type
REMARK                         _______ _______ _______ _____ _____    ______ ____
ROOT
ATOM      1  O   HOH     1      24.585 -17.764  27.222  0.00  0.00    +0.000 OA
ENDROOT
TORSDOF 0
REMARK  Name = ../refined-set-2016/1z71/1z71_pocket.pdb
REMARK  235 active torsions:
REMARK  status: ('A' for Active; 'I' for Inactive)
REMARK    1  A    between atoms: _1  and  _5
REMARK    2  A    between atoms: _5  and  _6
REMARK    3  A    between atoms: _5  and  _8
REMARK    4  A    between atoms: _8  and  _9
REMARK    5  A    between atoms: _12  and  _14
REMARK    6  A    between atoms: _14  and  _15
REMARK    7  A    between atoms: _14  and  _17
REMARK    8  A    between atoms: _20  and  _22
REMARK    9  A    between atoms: _22  and  _23
REMARK   10  A    between atoms: _22  and  _25
REMARK   11  A    between atoms: _25  and  _26
REMARK   12  A    between atoms: _26  and  _61
REMARK   13  A    between atoms: _27  and  _29
REMARK   14  A    between atoms: _29  and  _30
REMARK   15  A    between atoms: _32  and  _34
REMARK   16  A    between atoms: _34  and  _35
REMARK   17  A    between atoms: _38  and  _40
REMARK   18  A    between atoms: _40  and  _41
REMARK   19  A    between atoms: _44  and  _46
REMARK   20  A    between atoms: _46  and  _47
REMARK   21  A    between atoms: _46  and  _49
REMARK   22  A    between atoms: _49  and  _50
REMARK   23  A    between atoms: _55  and  _57
REMARK   24  A    between atoms: _57  and  _58
REMARK   25  A    between atoms: _57  and  _60
REMARK   26  A    between atoms: _60  and  _61
REMARK   27  A    between atoms: _62  and  _64
REMARK   28  A    between atoms: _64  and  _65
REMARK   29  A    between atoms: _64  and  _67
REMARK   30  A    between atoms: _67  and  _68
REMARK   31  A    between atoms: _71  and  _73
REMARK   32  A    between atoms: _73  and  _74
REMARK   33  A    between atoms: _73  and  _76
REMARK   34  A    between atoms: _76  and  _77
REMARK   35  A    between atoms: _82  and  _83
REMARK   36  A    between atoms: _86  and  _87
REMARK   37  A    between atoms: _92  and  _94
REMARK   38  A    between atoms: _94  and  _95
REMARK   39  A    between atoms: _94  and  _97
REMARK   40  A    between atoms: _97  and  _98
REMARK   41  A    between atoms: _108  and  _110
REMARK   42  A    between atoms: _110  and  _111
REMARK   43  A    between atoms: _110  and  _113
REMARK   44  A    between atoms: _113  and  _114
REMARK   45  A    between atoms: _114  and  _115
REMARK   46  A    between atoms: _115  and  _116
REMARK   47  A    between atoms: _116  and  _117
REMARK   48  A    between atoms: _121  and  _123
REMARK   49  A    between atoms: _123  and  _124
REMARK   50  A    between atoms: _123  and  _126
REMARK   51  A    between atoms: _126  and  _127
REMARK   52  A    between atoms: _132  and  _133
REMARK   53  A    between atoms: _135  and  _137
REMARK   54  A    between atoms: _137  and  _138
REMARK   55  A    between atoms: _137  and  _140
REMARK   56  A    between atoms: _140  and  _141
REMARK   57  A    between atoms: _146  and  _148
REMARK   58  A    between atoms: _148  and  _149
REMARK   59  A    between atoms: _148  and  _151
REMARK   60  A    between atoms: _151  and  _152
REMARK   61  A    between atoms: _162  and  _164
REMARK   62  A    between atoms: _164  and  _165
REMARK   63  A    between atoms: _164  and  _167
REMARK   64  A    between atoms: _167  and  _168
REMARK   65  A    between atoms: _168  and  _169
REMARK   66  A    between atoms: _169  and  _170
REMARK   67  A    between atoms: _179  and  _181
REMARK   68  A    between atoms: _181  and  _182
REMARK   69  A    between atoms: _181  and  _184
REMARK   70  A    between atoms: _184  and  _185
REMARK   71  A    between atoms: _185  and  _186
REMARK   72  A    between atoms: _189  and  _191
REMARK   73  A    between atoms: _191  and  _192
REMARK   74  A    between atoms: _191  and  _194
REMARK   75  A    between atoms: _194  and  _195
REMARK   76  A    between atoms: _200  and  _202
REMARK   77  A    between atoms: _202  and  _203
REMARK   78  A    between atoms: _202  and  _205
REMARK   79  A    between atoms: _205  and  _206
REMARK   80  A    between atoms: _209  and  _211
REMARK   81  A    between atoms: _211  and  _212
REMARK   82  A    between atoms: _211  and  _214
REMARK   83  A    between atoms: _214  and  _215
REMARK   84  A    between atoms: _218  and  _220
REMARK   85  A    between atoms: _220  and  _221
REMARK   86  A    between atoms: _220  and  _223
REMARK   87  A    between atoms: _223  and  _224
REMARK   88  A    between atoms: _227  and  _229
REMARK   89  A    between atoms: _229  and  _230
REMARK   90  A    between atoms: _229  and  _232
REMARK   91  A    between atoms: _235  and  _237
REMARK   92  A    between atoms: _237  and  _238
REMARK   93  A    between atoms: _240  and  _242
REMARK   94  A    between atoms: _242  and  _243
REMARK   95  A    between atoms: _242  and  _245
REMARK   96  A    between atoms: _245  and  _246
REMARK   97  A    between atoms: _251  and  _253
REMARK   98  A    between atoms: _253  and  _254
REMARK   99  A    between atoms: _253  and  _256
REMARK  100  A    between atoms: _256  and  _257
REMARK  101  A    between atoms: _260  and  _262
REMARK  102  A    between atoms: _262  and  _263
REMARK  103  A    between atoms: _262  and  _265
REMARK  104  A    between atoms: _265  and  _266
REMARK  105  A    between atoms: _269  and  _271
REMARK  106  A    between atoms: _271  and  _272
REMARK  107  A    between atoms: _271  and  _274
REMARK  108  A    between atoms: _274  and  _275
REMARK  109  A    between atoms: _275  and  _276
REMARK  110  A    between atoms: _276  and  _277
REMARK  111  A    between atoms: _286  and  _288
REMARK  112  A    between atoms: _288  and  _289
REMARK  113  A    between atoms: _288  and  _291
REMARK  114  A    between atoms: _291  and  _292
REMARK  115  A    between atoms: _295  and  _297
REMARK  116  A    between atoms: _297  and  _298
REMARK  117  A    between atoms: _297  and  _300
REMARK  118  A    between atoms: _300  and  _301
REMARK  119  A    between atoms: _301  and  _302
REMARK  120  A    between atoms: _302  and  _303
REMARK  121  A    between atoms: _312  and  _314
REMARK  122  A    between atoms: _314  and  _315
REMARK  123  A    between atoms: _314  and  _317
REMARK  124  A    between atoms: _317  and  _318
REMARK  125  A    between atoms: _318  and  _319
REMARK  126  A    between atoms: _321  and  _323
REMARK  127  A    between atoms: _323  and  _324
REMARK  128  A    between atoms: _323  and  _326
REMARK  129  A    between atoms: _326  and  _327
REMARK  130  A    between atoms: _333  and  _335
REMARK  131  A    between atoms: _335  and  _336
REMARK  132  A    between atoms: _335  and  _338
REMARK  133  A    between atoms: _340  and  _342
REMARK  134  A    between atoms: _342  and  _343
REMARK  135  A    between atoms: _346  and  _348
REMARK  136  A    between atoms: _348  and  _349
REMARK  137  A    between atoms: _351  and  _353
REMARK  138  A    between atoms: _353  and  _354
REMARK  139  A    between atoms: _353  and  _356
REMARK  140  A    between atoms: _356  and  _357
REMARK  141  A    between atoms: _360  and  _362
REMARK  142  A    between atoms: _362  and  _363
REMARK  143  A    between atoms: _366  and  _368
REMARK  144  A    between atoms: _368  and  _369
REMARK  145  A    between atoms: _368  and  _371
REMARK  146  A    between atoms: _371  and  _372
REMARK  147  A    between atoms: _372  and  _494
REMARK  148  A    between atoms: _373  and  _375
REMARK  149  A    between atoms: _375  and  _376
REMARK  150  A    between atoms: _375  and  _378
REMARK  151  A    between atoms: _378  and  _379
REMARK  152  A    between atoms: _379  and  _380
REMARK  153  A    between atoms: _383  and  _385
REMARK  154  A    between atoms: _385  and  _386
REMARK  155  A    between atoms: _388  and  _390
REMARK  156  A    between atoms: _390  and  _391
REMARK  157  A    between atoms: _390  and  _393
REMARK  158  A    between atoms: _393  and  _394
REMARK  159  A    between atoms: _397  and  _399
REMARK  160  A    between atoms: _399  and  _400
REMARK  161  A    between atoms: _399  and  _402
REMARK  162  A    between atoms: _402  and  _403
REMARK  163  A    between atoms: _405  and  _407
REMARK  164  A    between atoms: _407  and  _408
REMARK  165  A    between atoms: _410  and  _412
REMARK  166  A    between atoms: _412  and  _413
REMARK  167  A    between atoms: _415  and  _417
REMARK  168  A    between atoms: _417  and  _418
REMARK  169  A    between atoms: _417  and  _420
REMARK  170  A    between atoms: _420  and  _421
REMARK  171  A    between atoms: _427  and  _429
REMARK  172  A    between atoms: _429  and  _430
REMARK  173  A    between atoms: _429  and  _432
REMARK  174  A    between atoms: _432  and  _433
REMARK  175  A    between atoms: _436  and  _438
REMARK  176  A    between atoms: _438  and  _439
REMARK  177  A    between atoms: _438  and  _441
REMARK  178  A    between atoms: _444  and  _446
REMARK  179  A    between atoms: _446  and  _447
REMARK  180  A    between atoms: _446  and  _449
REMARK  181  A    between atoms: _449  and  _450
REMARK  182  A    between atoms: _452  and  _454
REMARK  183  A    between atoms: _454  and  _455
REMARK  184  A    between atoms: _454  and  _457
REMARK  185  A    between atoms: _457  and  _458
REMARK  186  A    between atoms: _468  and  _470
REMARK  187  A    between atoms: _470  and  _471
REMARK  188  A    between atoms: _473  and  _475
REMARK  189  A    between atoms: _475  and  _476
REMARK  190  A    between atoms: _475  and  _478
REMARK  191  A    between atoms: _478  and  _479
REMARK  192  A    between atoms: _479  and  _480
REMARK  193  A    between atoms: _483  and  _485
REMARK  194  A    between atoms: _485  and  _486
REMARK  195  A    between atoms: _488  and  _490
REMARK  196  A    between atoms: _490  and  _491
REMARK  197  A    between atoms: _490  and  _493
REMARK  198  A    between atoms: _493  and  _494
REMARK  199  A    between atoms: _495  and  _497
REMARK  200  A    between atoms: _497  and  _498
REMARK  201  A    between atoms: _497  and  _500
REMARK  202  A    between atoms: _500  and  _501
REMARK  203  A    between atoms: _504  and  _506
REMARK  204  A    between atoms: _506  and  _507
REMARK  205  A    between atoms: _506  and  _509
REMARK  206  A    between atoms: _509  and  _510
REMARK  207  A    between atoms: _510  and  _511
REMARK  208  A    between atoms: _511  and  _512
REMARK  209  A    between atoms: _521  and  _523
REMARK  210  A    between atoms: _523  and  _524
REMARK  211  A    between atoms: _523  and  _526
REMARK  212  A    between atoms: _526  and  _527
REMARK  213  A    between atoms: _527  and  _528
REMARK  214  A    between atoms: _528  and  _529
REMARK  215  A    between atoms: _529  and  _530
REMARK  216  A    between atoms: _534  and  _536
REMARK  217  A    between atoms: _536  and  _537
REMARK  218  A    between atoms: _536  and  _539
REMARK  219  A    between atoms: _539  and  _540
REMARK  220  A    between atoms: _545  and  _546
REMARK  221  A    between atoms: _548  and  _550
REMARK  222  A    between atoms: _550  and  _551
REMARK  223  A    between atoms: _553  and  _555
REMARK  224  A    between atoms: _555  and  _556
REMARK  225  A    between atoms: _555  and  _558
REMARK  226  A    between atoms: _558  and  _559
REMARK  227  A    between atoms: _565  and  _567
REMARK  228  A    between atoms: _567  and  _568
REMARK  229  A    between atoms: _567  and  _570
REMARK  230  A    between atoms: _570  and  _571
REMARK  231  A    between atoms: _576  and  _577
REMARK  232  A    between atoms: _579  and  _581
REMARK  233  A    between atoms: _581  and  _582
REMARK  234  A    between atoms: _581  and  _584
REMARK  235  A    between atoms: _584  and  _585
REMARK                            x       y       z     vdW  Elec       q    Type
REMARK                         _______ _______ _______ _____ _____    ______ ____
ROOT
ATOM      1  O   HOH     1      16.389 -14.679  14.154  0.00  0.00    +0.000 OA
ENDROOT
TORSDOF 0
REMARK  Name = ../refined-set-2016/1z71/1z71_pocket.pdb
REMARK  235 active torsions:
REMARK  status: ('A' for Active; 'I' for Inactive)
REMARK    1  A    between atoms: _1  and  _5
REMARK    2  A    between atoms: _5  and  _6
REMARK    3  A    between atoms: _5  and  _8
REMARK    4  A    between atoms: _8  and  _9
REMARK    5  A    between atoms: _12  and  _14
REMARK    6  A    between atoms: _14  and  _15
REMARK    7  A    between atoms: _14  and  _17
REMARK    8  A    between atoms: _20  and  _22
REMARK    9  A    between atoms: _22  and  _23
REMARK   10  A    between atoms: _22  and  _25
REMARK   11  A    between atoms: _25  and  _26
REMARK   12  A    between atoms: _26  and  _61
REMARK   13  A    between atoms: _27  and  _29
REMARK   14  A    between atoms: _29  and  _30
REMARK   15  A    between atoms: _32  and  _34
REMARK   16  A    between atoms: _34  and  _35
REMARK   17  A    between atoms: _38  and  _40
REMARK   18  A    between atoms: _40  and  _41
REMARK   19  A    between atoms: _44  and  _46
REMARK   20  A    between atoms: _46  and  _47
REMARK   21  A    between atoms: _46  and  _49
REMARK   22  A    between atoms: _49  and  _50
REMARK   23  A    between atoms: _55  and  _57
REMARK   24  A    between atoms: _57  and  _58
REMARK   25  A    between atoms: _57  and  _60
REMARK   26  A    between atoms: _60  and  _61
REMARK   27  A    between atoms: _62  and  _64
REMARK   28  A    between atoms: _64  and  _65
REMARK   29  A    between atoms: _64  and  _67
REMARK   30  A    between atoms: _67  and  _68
REMARK   31  A    between atoms: _71  and  _73
REMARK   32  A    between atoms: _73  and  _74
REMARK   33  A    between atoms: _73  and  _76
REMARK   34  A    between atoms: _76  and  _77
REMARK   35  A    between atoms: _82  and  _83
REMARK   36  A    between atoms: _86  and  _87
REMARK   37  A    between atoms: _92  and  _94
REMARK   38  A    between atoms: _94  and  _95
REMARK   39  A    between atoms: _94  and  _97
REMARK   40  A    between atoms: _97  and  _98
REMARK   41  A    between atoms: _108  and  _110
REMARK   42  A    between atoms: _110  and  _111
REMARK   43  A    between atoms: _110  and  _113
REMARK   44  A    between atoms: _113  and  _114
REMARK   45  A    between atoms: _114  and  _115
REMARK   46  A    between atoms: _115  and  _116
REMARK   47  A    between atoms: _116  and  _117
REMARK   48  A    between atoms: _121  and  _123
REMARK   49  A    between atoms: _123  and  _124
REMARK   50  A    between atoms: _123  and  _126
REMARK   51  A    between atoms: _126  and  _127
REMARK   52  A    between atoms: _132  and  _133
REMARK   53  A    between atoms: _135  and  _137
REMARK   54  A    between atoms: _137  and  _138
REMARK   55  A    between atoms: _137  and  _140
REMARK   56  A    between atoms: _140  and  _141
REMARK   57  A    between atoms: _146  and  _148
REMARK   58  A    between atoms: _148  and  _149
REMARK   59  A    between atoms: _148  and  _151
REMARK   60  A    between atoms: _151  and  _152
REMARK   61  A    between atoms: _162  and  _164
REMARK   62  A    between atoms: _164  and  _165
REMARK   63  A    between atoms: _164  and  _167
REMARK   64  A    between atoms: _167  and  _168
REMARK   65  A    between atoms: _168  and  _169
REMARK   66  A    between atoms: _169  and  _170
REMARK   67  A    between atoms: _179  and  _181
REMARK   68  A    between atoms: _181  and  _182
REMARK   69  A    between atoms: _181  and  _184
REMARK   70  A    between atoms: _184  and  _185
REMARK   71  A    between atoms: _185  and  _186
REMARK   72  A    between atoms: _189  and  _191
REMARK   73  A    between atoms: _191  and  _192
REMARK   74  A    between atoms: _191  and  _194
REMARK   75  A    between atoms: _194  and  _195
REMARK   76  A    between atoms: _200  and  _202
REMARK   77  A    between atoms: _202  and  _203
REMARK   78  A    between atoms: _202  and  _205
REMARK   79  A    between atoms: _205  and  _206
REMARK   80  A    between atoms: _209  and  _211
REMARK   81  A    between atoms: _211  and  _212
REMARK   82  A    between atoms: _211  and  _214
REMARK   83  A    between atoms: _214  and  _215
REMARK   84  A    between atoms: _218  and  _220
REMARK   85  A    between atoms: _220  and  _221
REMARK   86  A    between atoms: _220  and  _223
REMARK   87  A    between atoms: _223  and  _224
REMARK   88  A    between atoms: _227  and  _229
REMARK   89  A    between atoms: _229  and  _230
REMARK   90  A    between atoms: _229  and  _232
REMARK   91  A    between atoms: _235  and  _237
REMARK   92  A    between atoms: _237  and  _238
REMARK   93  A    between atoms: _240  and  _242
REMARK   94  A    between atoms: _242  and  _243
REMARK   95  A    between atoms: _242  and  _245
REMARK   96  A    between atoms: _245  and  _246
REMARK   97  A    between atoms: _251  and  _253
REMARK   98  A    between atoms: _253  and  _254
REMARK   99  A    between atoms: _253  and  _256
REMARK  100  A    between atoms: _256  and  _257
REMARK  101  A    between atoms: _260  and  _262
REMARK  102  A    between atoms: _262  and  _263
REMARK  103  A    between atoms: _262  and  _265
REMARK  104  A    between atoms: _265  and  _266
REMARK  105  A    between atoms: _269  and  _271
REMARK  106  A    between atoms: _271  and  _272
REMARK  107  A    between atoms: _271  and  _274
REMARK  108  A    between atoms: _274  and  _275
REMARK  109  A    between atoms: _275  and  _276
REMARK  110  A    between atoms: _276  and  _277
REMARK  111  A    between atoms: _286  and  _288
REMARK  112  A    between atoms: _288  and  _289
REMARK  113  A    between atoms: _288  and  _291
REMARK  114  A    between atoms: _291  and  _292
REMARK  115  A    between atoms: _295  and  _297
REMARK  116  A    between atoms: _297  and  _298
REMARK  117  A    between atoms: _297  and  _300
REMARK  118  A    between atoms: _300  and  _301
REMARK  119  A    between atoms: _301  and  _302
REMARK  120  A    between atoms: _302  and  _303
REMARK  121  A    between atoms: _312  and  _314
REMARK  122  A    between atoms: _314  and  _315
REMARK  123  A    between atoms: _314  and  _317
REMARK  124  A    between atoms: _317  and  _318
REMARK  125  A    between atoms: _318  and  _319
REMARK  126  A    between atoms: _321  and  _323
REMARK  127  A    between atoms: _323  and  _324
REMARK  128  A    between atoms: _323  and  _326
REMARK  129  A    between atoms: _326  and  _327
REMARK  130  A    between atoms: _333  and  _335
REMARK  131  A    between atoms: _335  and  _336
REMARK  132  A    between atoms: _335  and  _338
REMARK  133  A    between atoms: _340  and  _342
REMARK  134  A    between atoms: _342  and  _343
REMARK  135  A    between atoms: _346  and  _348
REMARK  136  A    between atoms: _348  and  _349
REMARK  137  A    between atoms: _351  and  _353
REMARK  138  A    between atoms: _353  and  _354
REMARK  139  A    between atoms: _353  and  _356
REMARK  140  A    between atoms: _356  and  _357
REMARK  141  A    between atoms: _360  and  _362
REMARK  142  A    between atoms: _362  and  _363
REMARK  143  A    between atoms: _366  and  _368
REMARK  144  A    between atoms: _368  and  _369
REMARK  145  A    between atoms: _368  and  _371
REMARK  146  A    between atoms: _371  and  _372
REMARK  147  A    between atoms: _372  and  _494
REMARK  148  A    between atoms: _373  and  _375
REMARK  149  A    between atoms: _375  and  _376
REMARK  150  A    between atoms: _375  and  _378
REMARK  151  A    between atoms: _378  and  _379
REMARK  152  A    between atoms: _379  and  _380
REMARK  153  A    between atoms: _383  and  _385
REMARK  154  A    between atoms: _385  and  _386
REMARK  155  A    between atoms: _388  and  _390
REMARK  156  A    between atoms: _390  and  _391
REMARK  157  A    between atoms: _390  and  _393
REMARK  158  A    between atoms: _393  and  _394
REMARK  159  A    between atoms: _397  and  _399
REMARK  160  A    between atoms: _399  and  _400
REMARK  161  A    between atoms: _399  and  _402
REMARK  162  A    between atoms: _402  and  _403
REMARK  163  A    between atoms: _405  and  _407
REMARK  164  A    between atoms: _407  and  _408
REMARK  165  A    between atoms: _410  and  _412
REMARK  166  A    between atoms: _412  and  _413
REMARK  167  A    between atoms: _415  and  _417
REMARK  168  A    between atoms: _417  and  _418
REMARK  169  A    between atoms: _417  and  _420
REMARK  170  A    between atoms: _420  and  _421
REMARK  171  A    between atoms: _427  and  _429
REMARK  172  A    between atoms: _429  and  _430
REMARK  173  A    between atoms: _429  and  _432
REMARK  174  A    between atoms: _432  and  _433
REMARK  175  A    between atoms: _436  and  _438
REMARK  176  A    between atoms: _438  and  _439
REMARK  177  A    between atoms: _438  and  _441
REMARK  178  A    between atoms: _444  and  _446
REMARK  179  A    between atoms: _446  and  _447
REMARK  180  A    between atoms: _446  and  _449
REMARK  181  A    between atoms: _449  and  _450
REMARK  182  A    between atoms: _452  and  _454
REMARK  183  A    between atoms: _454  and  _455
REMARK  184  A    between atoms: _454  and  _457
REMARK  185  A    between atoms: _457  and  _458
REMARK  186  A    between atoms: _468  and  _470
REMARK  187  A    between atoms: _470  and  _471
REMARK  188  A    between atoms: _473  and  _475
REMARK  189  A    between atoms: _475  and  _476
REMARK  190  A    between atoms: _475  and  _478
REMARK  191  A    between atoms: _478  and  _479
REMARK  192  A    between atoms: _479  and  _480
REMARK  193  A    between atoms: _483  and  _485
REMARK  194  A    between atoms: _485  and  _486
REMARK  195  A    between atoms: _488  and  _490
REMARK  196  A    between atoms: _490  and  _491
REMARK  197  A    between atoms: _490  and  _493
REMARK  198  A    between atoms: _493  and  _494
REMARK  199  A    between atoms: _495  and  _497
REMARK  200  A    between atoms: _497  and  _498
REMARK  201  A    between atoms: _497  and  _500
REMARK  202  A    between atoms: _500  and  _501
REMARK  203  A    between atoms: _504  and  _506
REMARK  204  A    between atoms: _506  and  _507
REMARK  205  A    between atoms: _506  and  _509
REMARK  206  A    between atoms: _509  and  _510
REMARK  207  A    between atoms: _510  and  _511
REMARK  208  A    between atoms: _511  and  _512
REMARK  209  A    between atoms: _521  and  _523
REMARK  210  A    between atoms: _523  and  _524
REMARK  211  A    between atoms: _523  and  _526
REMARK  212  A    between atoms: _526  and  _527
REMARK  213  A    between atoms: _527  and  _528
REMARK  214  A    between atoms: _528  and  _529
REMARK  215  A    between atoms: _529  and  _530
REMARK  216  A    between atoms: _534  and  _536
REMARK  217  A    between atoms: _536  and  _537
REMARK  218  A    between atoms: _536  and  _539
REMARK  219  A    between atoms: _539  and  _540
REMARK  220  A    between atoms: _545  and  _546
REMARK  221  A    between atoms: _548  and  _550
REMARK  222  A    between atoms: _550  and  _551
REMARK  223  A    between atoms: _553  and  _555
REMARK  224  A    between atoms: _555  and  _556
REMARK  225  A    between atoms: _555  and  _558
REMARK  226  A    between atoms: _558  and  _559
REMARK  227  A    between atoms: _565  and  _567
REMARK  228  A    between atoms: _567  and  _568
REMARK  229  A    between atoms: _567  and  _570
REMARK  230  A    between atoms: _570  and  _571
REMARK  231  A    between atoms: _576  and  _577
REMARK  232  A    between atoms: _579  and  _581
REMARK  233  A    between atoms: _581  and  _582
REMARK  234  A    between atoms: _581  and  _584
REMARK  235  A    between atoms: _584  and  _585
REMARK                            x       y       z     vdW  Elec       q    Type
REMARK                         _______ _______ _______ _____ _____    ______ ____
ROOT
ATOM      1  O   HOH     1      16.537 -21.022  27.015  0.00  0.00    +0.000 OA
ENDROOT
TORSDOF 0
