REMARK  Name = ../refined-set-2016/3el1/3el1_pocket.pdb
REMARK  211 active torsions:
REMARK  status: ('A' for Active; 'I' for Inactive)
REMARK    1  A    between atoms: _1  and  _3
REMARK    2  A    between atoms: _3  and  _4
REMARK    3  A    between atoms: _3  and  _6
REMARK    4  A    between atoms: _6  and  _7
REMARK    5  A    between atoms: _7  and  _8
REMARK    6  A    between atoms: _8  and  _9
REMARK    7  A    between atoms: _18  and  _20
REMARK    8  A    between atoms: _20  and  _21
REMARK    9  A    between atoms: _20  and  _23
REMARK   10  A    between atoms: _23  and  _24
REMARK   11  A    between atoms: _27  and  _29
REMARK   12  A    between atoms: _29  and  _30
REMARK   13  A    between atoms: _29  and  _32
REMARK   14  A    between atoms: _32  and  _33
REMARK   15  A    between atoms: _36  and  _38
REMARK   16  A    between atoms: _38  and  _39
REMARK   17  A    between atoms: _38  and  _41
REMARK   18  A    between atoms: _41  and  _42
REMARK   19  A    between atoms: _45  and  _47
REMARK   20  A    between atoms: _47  and  _48
REMARK   21  A    between atoms: _47  and  _50
REMARK   22  A    between atoms: _50  and  _51
REMARK   23  A    between atoms: _54  and  _56
REMARK   24  A    between atoms: _56  and  _57
REMARK   25  A    between atoms: _59  and  _61
REMARK   26  A    between atoms: _61  and  _62
REMARK   27  A    between atoms: _65  and  _67
REMARK   28  A    between atoms: _67  and  _68
REMARK   29  A    between atoms: _67  and  _70
REMARK   30  A    between atoms: _70  and  _71
REMARK   31  A    between atoms: _74  and  _76
REMARK   32  A    between atoms: _76  and  _77
REMARK   33  A    between atoms: _76  and  _79
REMARK   34  A    between atoms: _79  and  _80
REMARK   35  A    between atoms: _83  and  _85
REMARK   36  A    between atoms: _85  and  _86
REMARK   37  A    between atoms: _85  and  _88
REMARK   38  A    between atoms: _88  and  _89
REMARK   39  A    between atoms: _92  and  _94
REMARK   40  A    between atoms: _94  and  _95
REMARK   41  A    between atoms: _94  and  _97
REMARK   42  A    between atoms: _100  and  _102
REMARK   43  A    between atoms: _102  and  _103
REMARK   44  A    between atoms: _102  and  _105
REMARK   45  A    between atoms: _105  and  _106
REMARK   46  A    between atoms: _106  and  _107
REMARK   47  A    between atoms: _109  and  _111
REMARK   48  A    between atoms: _111  and  _112
REMARK   49  A    between atoms: _111  and  _114
REMARK   50  A    between atoms: _114  and  _115
REMARK   51  A    between atoms: _118  and  _120
REMARK   52  A    between atoms: _120  and  _121
REMARK   53  A    between atoms: _123  and  _125
REMARK   54  A    between atoms: _125  and  _126
REMARK   55  A    between atoms: _128  and  _130
REMARK   56  A    between atoms: _130  and  _131
REMARK   57  A    between atoms: _130  and  _133
REMARK   58  A    between atoms: _133  and  _134
REMARK   59  A    between atoms: _137  and  _139
REMARK   60  A    between atoms: _139  and  _140
REMARK   61  A    between atoms: _142  and  _144
REMARK   62  A    between atoms: _144  and  _145
REMARK   63  A    between atoms: _147  and  _149
REMARK   64  A    between atoms: _149  and  _150
REMARK   65  A    between atoms: _149  and  _152
REMARK   66  A    between atoms: _152  and  _153
REMARK   67  A    between atoms: _159  and  _161
REMARK   68  A    between atoms: _161  and  _162
REMARK   69  A    between atoms: _161  and  _164
REMARK   70  A    between atoms: _164  and  _165
REMARK   71  A    between atoms: _168  and  _170
REMARK   72  A    between atoms: _170  and  _171
REMARK   73  A    between atoms: _170  and  _173
REMARK   74  A    between atoms: _176  and  _178
REMARK   75  A    between atoms: _178  and  _179
REMARK   76  A    between atoms: _178  and  _181
REMARK   77  A    between atoms: _181  and  _182
REMARK   78  A    between atoms: _186  and  _187
REMARK   79  A    between atoms: _192  and  _194
REMARK   80  A    between atoms: _194  and  _195
REMARK   81  A    between atoms: _194  and  _197
REMARK   82  A    between atoms: _197  and  _198
REMARK   83  A    between atoms: _202  and  _203
REMARK   84  A    between atoms: _208  and  _210
REMARK   85  A    between atoms: _210  and  _211
REMARK   86  A    between atoms: _210  and  _213
REMARK   87  A    between atoms: _216  and  _218
REMARK   88  A    between atoms: _218  and  _219
REMARK   89  A    between atoms: _218  and  _221
REMARK   90  A    between atoms: _221  and  _222
REMARK   91  A    between atoms: _227  and  _229
REMARK   92  A    between atoms: _229  and  _230
REMARK   93  A    between atoms: _229  and  _232
REMARK   94  A    between atoms: _232  and  _233
REMARK   95  A    between atoms: _236  and  _238
REMARK   96  A    between atoms: _238  and  _239
REMARK   97  A    between atoms: _238  and  _241
REMARK   98  A    between atoms: _241  and  _242
REMARK   99  A    between atoms: _245  and  _247
REMARK  100  A    between atoms: _247  and  _248
REMARK  101  A    between atoms: _250  and  _252
REMARK  102  A    between atoms: _252  and  _253
REMARK  103  A    between atoms: _252  and  _255
REMARK  104  A    between atoms: _255  and  _256
REMARK  105  A    between atoms: _256  and  _257
REMARK  106  A    between atoms: _257  and  _258
REMARK  107  A    between atoms: _267  and  _269
REMARK  108  A    between atoms: _269  and  _270
REMARK  109  A    between atoms: _269  and  _272
REMARK  110  A    between atoms: _272  and  _273
REMARK  111  A    between atoms: _273  and  _274
REMARK  112  A    between atoms: _274  and  _275
REMARK  113  A    between atoms: _284  and  _286
REMARK  114  A    between atoms: _286  and  _287
REMARK  115  A    between atoms: _286  and  _289
REMARK  116  A    between atoms: _289  and  _290
REMARK  117  A    between atoms: _293  and  _295
REMARK  118  A    between atoms: _295  and  _296
REMARK  119  A    between atoms: _295  and  _298
REMARK  120  A    between atoms: _298  and  _299
REMARK  121  A    between atoms: _302  and  _304
REMARK  122  A    between atoms: _304  and  _305
REMARK  123  A    between atoms: _304  and  _307
REMARK  124  A    between atoms: _307  and  _308
REMARK  125  A    between atoms: _311  and  _313
REMARK  126  A    between atoms: _313  and  _314
REMARK  127  A    between atoms: _313  and  _316
REMARK  128  A    between atoms: _316  and  _317
REMARK  129  A    between atoms: _320  and  _322
REMARK  130  A    between atoms: _322  and  _323
REMARK  131  A    between atoms: _325  and  _327
REMARK  132  A    between atoms: _327  and  _328
REMARK  133  A    between atoms: _331  and  _333
REMARK  134  A    between atoms: _333  and  _334
REMARK  135  A    between atoms: _333  and  _336
REMARK  136  A    between atoms: _336  and  _337
REMARK  137  A    between atoms: _340  and  _342
REMARK  138  A    between atoms: _342  and  _343
REMARK  139  A    between atoms: _342  and  _345
REMARK  140  A    between atoms: _345  and  _346
REMARK  141  A    between atoms: _349  and  _351
REMARK  142  A    between atoms: _351  and  _352
REMARK  143  A    between atoms: _351  and  _354
REMARK  144  A    between atoms: _354  and  _355
REMARK  145  A    between atoms: _358  and  _360
REMARK  146  A    between atoms: _360  and  _361
REMARK  147  A    between atoms: _360  and  _363
REMARK  148  A    between atoms: _366  and  _368
REMARK  149  A    between atoms: _368  and  _369
REMARK  150  A    between atoms: _368  and  _371
REMARK  151  A    between atoms: _371  and  _372
REMARK  152  A    between atoms: _375  and  _377
REMARK  153  A    between atoms: _377  and  _378
REMARK  154  A    between atoms: _380  and  _382
REMARK  155  A    between atoms: _382  and  _383
REMARK  156  A    between atoms: _385  and  _387
REMARK  157  A    between atoms: _387  and  _388
REMARK  158  A    between atoms: _387  and  _390
REMARK  159  A    between atoms: _390  and  _391
REMARK  160  A    between atoms: _394  and  _396
REMARK  161  A    between atoms: _396  and  _397
REMARK  162  A    between atoms: _399  and  _401
REMARK  163  A    between atoms: _401  and  _402
REMARK  164  A    between atoms: _404  and  _406
REMARK  165  A    between atoms: _406  and  _407
REMARK  166  A    between atoms: _406  and  _409
REMARK  167  A    between atoms: _409  and  _410
REMARK  168  A    between atoms: _416  and  _418
REMARK  169  A    between atoms: _418  and  _419
REMARK  170  A    between atoms: _418  and  _421
REMARK  171  A    between atoms: _421  and  _422
REMARK  172  A    between atoms: _425  and  _427
REMARK  173  A    between atoms: _427  and  _428
REMARK  174  A    between atoms: _427  and  _430
REMARK  175  A    between atoms: _433  and  _435
REMARK  176  A    between atoms: _435  and  _436
REMARK  177  A    between atoms: _435  and  _438
REMARK  178  A    between atoms: _438  and  _439
REMARK  179  A    between atoms: _443  and  _444
REMARK  180  A    between atoms: _449  and  _451
REMARK  181  A    between atoms: _451  and  _452
REMARK  182  A    between atoms: _451  and  _454
REMARK  183  A    between atoms: _454  and  _455
REMARK  184  A    between atoms: _459  and  _460
REMARK  185  A    between atoms: _465  and  _467
REMARK  186  A    between atoms: _467  and  _468
REMARK  187  A    between atoms: _467  and  _470
REMARK  188  A    between atoms: _473  and  _475
REMARK  189  A    between atoms: _475  and  _476
REMARK  190  A    between atoms: _475  and  _478
REMARK  191  A    between atoms: _478  and  _479
REMARK  192  A    between atoms: _484  and  _486
REMARK  193  A    between atoms: _486  and  _487
REMARK  194  A    between atoms: _486  and  _489
REMARK  195  A    between atoms: _489  and  _490
REMARK  196  A    between atoms: _493  and  _495
REMARK  197  A    between atoms: _495  and  _496
REMARK  198  A    between atoms: _495  and  _498
REMARK  199  A    between atoms: _498  and  _499
REMARK  200  A    between atoms: _502  and  _504
REMARK  201  A    between atoms: _504  and  _505
REMARK  202  A    between atoms: _507  and  _509
REMARK  203  A    between atoms: _509  and  _510
REMARK  204  A    between atoms: _509  and  _512
REMARK  205  A    between atoms: _512  and  _513
REMARK  206  A    between atoms: _513  and  _514
REMARK  207  A    between atoms: _514  and  _515
REMARK  208  A    between atoms: _524  and  _526
REMARK  209  A    between atoms: _526  and  _527
REMARK  210  A    between atoms: _526  and  _529
REMARK  211  A    between atoms: _529  and  _530
REMARK                            x       y       z     vdW  Elec       q    Type
REMARK                         _______ _______ _______ _____ _____    ______ ____
ROOT
ATOM      1  NE  ARG A   1      19.206  20.519  10.999  0.00  0.00    -0.265 N 
ATOM      2  HE  ARG A   1      20.107  20.902  11.349  0.00  0.00    +0.259 HD
ATOM      3  CZ  ARG A   1      19.002  20.536   9.682  0.00  0.00    +0.342 C 
ATOM      4  NH2 ARG A   1      17.878  20.059   9.144  0.00  0.00    -0.292 N 
ATOM      5 HH21 ARG A   1      17.136  19.662   9.756  0.00  0.00    +0.255 HD
ATOM      6 HH22 ARG A   1      17.744  20.084   8.113  0.00  0.00    +0.255 HD
ATOM      7  NH1 ARG A   1      19.936  21.033   8.881  0.00  0.00    -0.292 N 
ATOM      8 HH11 ARG A   1      20.820  21.406   9.282  0.00  0.00    +0.255 HD
ATOM      9 HH12 ARG A   1      19.784  21.050   7.852  0.00  0.00    +0.255 HD
ENDROOT
BRANCH   1  10
ATOM     10  CD  ARG A   1      18.263  20.004  11.992  0.00  0.00    +0.174 C 
BRANCH  10  11
ATOM     11  CG  ARG A   1      19.003  19.410  13.164  0.00  0.00    +0.045 C 
BRANCH  11  12
ATOM     12  CB  ARG A   1      18.043  18.890  14.212  0.00  0.00    +0.029 C 
BRANCH  12  13
ATOM     13  CA  ARG A   1      18.743  18.282  15.420  0.00  0.00    +0.133 C 
BRANCH  13  14
ATOM     14  N   ARG A   1      19.437  17.047  15.046  0.00  0.00    -0.239 NA
ATOM     15  H   ARG A   1      19.419  16.722  14.058  0.00  0.00    +0.142 HD
ENDBRANCH  13  14
BRANCH  13  16
ATOM     16  C   ARG A   1      17.728  17.973  16.521  0.00  0.00    +0.224 C 
ATOM     17  O   ARG A   1      16.984  16.987  16.421  0.00  0.00    -0.287 OA
ENDBRANCH  13  16
ENDBRANCH  12  13
ENDBRANCH  11  12
ENDBRANCH  10  11
ENDBRANCH   1  10
TORSDOF 6
REMARK  Name = ../refined-set-2016/3el1/3el1_pocket.pdb
REMARK  211 active torsions:
REMARK  status: ('A' for Active; 'I' for Inactive)
REMARK    1  A    between atoms: _1  and  _3
REMARK    2  A    between atoms: _3  and  _4
REMARK    3  A    between atoms: _3  and  _6
REMARK    4  A    between atoms: _6  and  _7
REMARK    5  A    between atoms: _7  and  _8
REMARK    6  A    between atoms: _8  and  _9
REMARK    7  A    between atoms: _18  and  _20
REMARK    8  A    between atoms: _20  and  _21
REMARK    9  A    between atoms: _20  and  _23
REMARK   10  A    between atoms: _23  and  _24
REMARK   11  A    between atoms: _27  and  _29
REMARK   12  A    between atoms: _29  and  _30
REMARK   13  A    between atoms: _29  and  _32
REMARK   14  A    between atoms: _32  and  _33
REMARK   15  A    between atoms: _36  and  _38
REMARK   16  A    between atoms: _38  and  _39
REMARK   17  A    between atoms: _38  and  _41
REMARK   18  A    between atoms: _41  and  _42
REMARK   19  A    between atoms: _45  and  _47
REMARK   20  A    between atoms: _47  and  _48
REMARK   21  A    between atoms: _47  and  _50
REMARK   22  A    between atoms: _50  and  _51
REMARK   23  A    between atoms: _54  and  _56
REMARK   24  A    between atoms: _56  and  _57
REMARK   25  A    between atoms: _59  and  _61
REMARK   26  A    between atoms: _61  and  _62
REMARK   27  A    between atoms: _65  and  _67
REMARK   28  A    between atoms: _67  and  _68
REMARK   29  A    between atoms: _67  and  _70
REMARK   30  A    between atoms: _70  and  _71
REMARK   31  A    between atoms: _74  and  _76
REMARK   32  A    between atoms: _76  and  _77
REMARK   33  A    between atoms: _76  and  _79
REMARK   34  A    between atoms: _79  and  _80
REMARK   35  A    between atoms: _83  and  _85
REMARK   36  A    between atoms: _85  and  _86
REMARK   37  A    between atoms: _85  and  _88
REMARK   38  A    between atoms: _88  and  _89
REMARK   39  A    between atoms: _92  and  _94
REMARK   40  A    between atoms: _94  and  _95
REMARK   41  A    between atoms: _94  and  _97
REMARK   42  A    between atoms: _100  and  _102
REMARK   43  A    between atoms: _102  and  _103
REMARK   44  A    between atoms: _102  and  _105
REMARK   45  A    between atoms: _105  and  _106
REMARK   46  A    between atoms: _106  and  _107
REMARK   47  A    between atoms: _109  and  _111
REMARK   48  A    between atoms: _111  and  _112
REMARK   49  A    between atoms: _111  and  _114
REMARK   50  A    between atoms: _114  and  _115
REMARK   51  A    between atoms: _118  and  _120
REMARK   52  A    between atoms: _120  and  _121
REMARK   53  A    between atoms: _123  and  _125
REMARK   54  A    between atoms: _125  and  _126
REMARK   55  A    between atoms: _128  and  _130
REMARK   56  A    between atoms: _130  and  _131
REMARK   57  A    between atoms: _130  and  _133
REMARK   58  A    between atoms: _133  and  _134
REMARK   59  A    between atoms: _137  and  _139
REMARK   60  A    between atoms: _139  and  _140
REMARK   61  A    between atoms: _142  and  _144
REMARK   62  A    between atoms: _144  and  _145
REMARK   63  A    between atoms: _147  and  _149
REMARK   64  A    between atoms: _149  and  _150
REMARK   65  A    between atoms: _149  and  _152
REMARK   66  A    between atoms: _152  and  _153
REMARK   67  A    between atoms: _159  and  _161
REMARK   68  A    between atoms: _161  and  _162
REMARK   69  A    between atoms: _161  and  _164
REMARK   70  A    between atoms: _164  and  _165
REMARK   71  A    between atoms: _168  and  _170
REMARK   72  A    between atoms: _170  and  _171
REMARK   73  A    between atoms: _170  and  _173
REMARK   74  A    between atoms: _176  and  _178
REMARK   75  A    between atoms: _178  and  _179
REMARK   76  A    between atoms: _178  and  _181
REMARK   77  A    between atoms: _181  and  _182
REMARK   78  A    between atoms: _186  and  _187
REMARK   79  A    between atoms: _192  and  _194
REMARK   80  A    between atoms: _194  and  _195
REMARK   81  A    between atoms: _194  and  _197
REMARK   82  A    between atoms: _197  and  _198
REMARK   83  A    between atoms: _202  and  _203
REMARK   84  A    between atoms: _208  and  _210
REMARK   85  A    between atoms: _210  and  _211
REMARK   86  A    between atoms: _210  and  _213
REMARK   87  A    between atoms: _216  and  _218
REMARK   88  A    between atoms: _218  and  _219
REMARK   89  A    between atoms: _218  and  _221
REMARK   90  A    between atoms: _221  and  _222
REMARK   91  A    between atoms: _227  and  _229
REMARK   92  A    between atoms: _229  and  _230
REMARK   93  A    between atoms: _229  and  _232
REMARK   94  A    between atoms: _232  and  _233
REMARK   95  A    between atoms: _236  and  _238
REMARK   96  A    between atoms: _238  and  _239
REMARK   97  A    between atoms: _238  and  _241
REMARK   98  A    between atoms: _241  and  _242
REMARK   99  A    between atoms: _245  and  _247
REMARK  100  A    between atoms: _247  and  _248
REMARK  101  A    between atoms: _250  and  _252
REMARK  102  A    between atoms: _252  and  _253
REMARK  103  A    between atoms: _252  and  _255
REMARK  104  A    between atoms: _255  and  _256
REMARK  105  A    between atoms: _256  and  _257
REMARK  106  A    between atoms: _257  and  _258
REMARK  107  A    between atoms: _267  and  _269
REMARK  108  A    between atoms: _269  and  _270
REMARK  109  A    between atoms: _269  and  _272
REMARK  110  A    between atoms: _272  and  _273
REMARK  111  A    between atoms: _273  and  _274
REMARK  112  A    between atoms: _274  and  _275
REMARK  113  A    between atoms: _284  and  _286
REMARK  114  A    between atoms: _286  and  _287
REMARK  115  A    between atoms: _286  and  _289
REMARK  116  A    between atoms: _289  and  _290
REMARK  117  A    between atoms: _293  and  _295
REMARK  118  A    between atoms: _295  and  _296
REMARK  119  A    between atoms: _295  and  _298
REMARK  120  A    between atoms: _298  and  _299
REMARK  121  A    between atoms: _302  and  _304
REMARK  122  A    between atoms: _304  and  _305
REMARK  123  A    between atoms: _304  and  _307
REMARK  124  A    between atoms: _307  and  _308
REMARK  125  A    between atoms: _311  and  _313
REMARK  126  A    between atoms: _313  and  _314
REMARK  127  A    between atoms: _313  and  _316
REMARK  128  A    between atoms: _316  and  _317
REMARK  129  A    between atoms: _320  and  _322
REMARK  130  A    between atoms: _322  and  _323
REMARK  131  A    between atoms: _325  and  _327
REMARK  132  A    between atoms: _327  and  _328
REMARK  133  A    between atoms: _331  and  _333
REMARK  134  A    between atoms: _333  and  _334
REMARK  135  A    between atoms: _333  and  _336
REMARK  136  A    between atoms: _336  and  _337
REMARK  137  A    between atoms: _340  and  _342
REMARK  138  A    between atoms: _342  and  _343
REMARK  139  A    between atoms: _342  and  _345
REMARK  140  A    between atoms: _345  and  _346
REMARK  141  A    between atoms: _349  and  _351
REMARK  142  A    between atoms: _351  and  _352
REMARK  143  A    between atoms: _351  and  _354
REMARK  144  A    between atoms: _354  and  _355
REMARK  145  A    between atoms: _358  and  _360
REMARK  146  A    between atoms: _360  and  _361
REMARK  147  A    between atoms: _360  and  _363
REMARK  148  A    between atoms: _366  and  _368
REMARK  149  A    between atoms: _368  and  _369
REMARK  150  A    between atoms: _368  and  _371
REMARK  151  A    between atoms: _371  and  _372
REMARK  152  A    between atoms: _375  and  _377
REMARK  153  A    between atoms: _377  and  _378
REMARK  154  A    between atoms: _380  and  _382
REMARK  155  A    between atoms: _382  and  _383
REMARK  156  A    between atoms: _385  and  _387
REMARK  157  A    between atoms: _387  and  _388
REMARK  158  A    between atoms: _387  and  _390
REMARK  159  A    between atoms: _390  and  _391
REMARK  160  A    between atoms: _394  and  _396
REMARK  161  A    between atoms: _396  and  _397
REMARK  162  A    between atoms: _399  and  _401
REMARK  163  A    between atoms: _401  and  _402
REMARK  164  A    between atoms: _404  and  _406
REMARK  165  A    between atoms: _406  and  _407
REMARK  166  A    between atoms: _406  and  _409
REMARK  167  A    between atoms: _409  and  _410
REMARK  168  A    between atoms: _416  and  _418
REMARK  169  A    between atoms: _418  and  _419
REMARK  170  A    between atoms: _418  and  _421
REMARK  171  A    between atoms: _421  and  _422
REMARK  172  A    between atoms: _425  and  _427
REMARK  173  A    between atoms: _427  and  _428
REMARK  174  A    between atoms: _427  and  _430
REMARK  175  A    between atoms: _433  and  _435
REMARK  176  A    between atoms: _435  and  _436
REMARK  177  A    between atoms: _435  and  _438
REMARK  178  A    between atoms: _438  and  _439
REMARK  179  A    between atoms: _443  and  _444
REMARK  180  A    between atoms: _449  and  _451
REMARK  181  A    between atoms: _451  and  _452
REMARK  182  A    between atoms: _451  and  _454
REMARK  183  A    between atoms: _454  and  _455
REMARK  184  A    between atoms: _459  and  _460
REMARK  185  A    between atoms: _465  and  _467
REMARK  186  A    between atoms: _467  and  _468
REMARK  187  A    between atoms: _467  and  _470
REMARK  188  A    between atoms: _473  and  _475
REMARK  189  A    between atoms: _475  and  _476
REMARK  190  A    between atoms: _475  and  _478
REMARK  191  A    between atoms: _478  and  _479
REMARK  192  A    between atoms: _484  and  _486
REMARK  193  A    between atoms: _486  and  _487
REMARK  194  A    between atoms: _486  and  _489
REMARK  195  A    between atoms: _489  and  _490
REMARK  196  A    between atoms: _493  and  _495
REMARK  197  A    between atoms: _495  and  _496
REMARK  198  A    between atoms: _495  and  _498
REMARK  199  A    between atoms: _498  and  _499
REMARK  200  A    between atoms: _502  and  _504
REMARK  201  A    between atoms: _504  and  _505
REMARK  202  A    between atoms: _507  and  _509
REMARK  203  A    between atoms: _509  and  _510
REMARK  204  A    between atoms: _509  and  _512
REMARK  205  A    between atoms: _512  and  _513
REMARK  206  A    between atoms: _513  and  _514
REMARK  207  A    between atoms: _514  and  _515
REMARK  208  A    between atoms: _524  and  _526
REMARK  209  A    between atoms: _526  and  _527
REMARK  210  A    between atoms: _526  and  _529
REMARK  211  A    between atoms: _529  and  _530
REMARK                            x       y       z     vdW  Elec       q    Type
REMARK                         _______ _______ _______ _____ _____    ______ ____
ROOT
ATOM      1  C   GLY A   5      19.784  31.238  19.889  0.00  0.00    +0.243 C 
ATOM      2  N   ALA A   6      18.523  31.034  20.268  0.00  0.00    -0.297 N 
ATOM      3  H   ALA A   6      18.310  30.218  20.876  0.00  0.00    +0.150 HD
ATOM      4  O   GLY A   5      20.134  32.188  19.169  0.00  0.00    -0.273 OA
ENDROOT
BRANCH   2   5
ATOM      5  CA  ALA A   6      17.426  31.914  19.862  0.00  0.00    +0.149 C 
ATOM      6  CB  ALA A   6      16.319  31.089  19.203  0.00  0.00    +0.031 C 
BRANCH   5   7
ATOM      7  C   ALA A   6      16.873  32.654  21.072  0.00  0.00    +0.241 C 
ATOM      8  O   ALA A   6      16.424  32.027  22.029  0.00  0.00    -0.273 OA
ATOM      9  N   ASP A   7      16.877  33.984  21.023  0.00  0.00    -0.297 N 
ATOM     10  H   ASP A   7      17.321  34.461  20.213  0.00  0.00    +0.150 HD
BRANCH   9  11
ATOM     11  CA  ASP A   7      16.269  34.793  22.087  0.00  0.00    +0.160 C 
BRANCH  11  12
ATOM     12  C   ASP A   7      14.754  34.627  22.087  0.00  0.00    +0.241 C 
ATOM     13  O   ASP A   7      14.117  34.702  23.135  0.00  0.00    -0.273 OA
ATOM     14  N   ASP A   8      14.200  34.456  20.890  0.00  0.00    -0.297 N 
ATOM     15  H   ASP A   8      14.835  34.280  20.085  0.00  0.00    +0.150 HD
BRANCH  14  16
ATOM     16  CA  ASP A   8      12.769  34.497  20.626  0.00  0.00    +0.160 C 
BRANCH  16  17
ATOM     17  C   ASP A   8      12.307  33.208  19.970  0.00  0.00    +0.241 C 
ATOM     18  N   THR A   9      10.998  32.982  20.002  0.00  0.00    -0.295 N 
ATOM     19  H   THR A   9      10.389  33.662  20.500  0.00  0.00    +0.150 HD
ATOM     20  O   ASP A   8      13.105  32.450  19.426  0.00  0.00    -0.273 OA
BRANCH  18  21
ATOM     21  CA  THR A   9      10.376  31.820  19.368  0.00  0.00    +0.176 C 
BRANCH  21  22
ATOM     22  C   THR A   9       9.804  32.285  18.035  0.00  0.00    +0.243 C 
ATOM     23  O   THR A   9       9.069  33.272  17.990  0.00  0.00    -0.273 OA
ATOM     24  N   VAL A  10      10.152  31.584  16.961  0.00  0.00    -0.298 N 
ATOM     25  H   VAL A  10      10.704  30.713  17.095  0.00  0.00    +0.150 HD
BRANCH  24  26
ATOM     26  CA  VAL A  10       9.795  31.981  15.595  0.00  0.00    +0.137 C 
BRANCH  26  27
ATOM     27  CB  VAL A  10      10.998  32.491  14.771  0.00  0.00    +0.026 C 
ATOM     28  CG2 VAL A  10      11.823  33.501  15.568  0.00  0.00    +0.002 C 
ATOM     29  CG1 VAL A  10      10.520  33.123  13.466  0.00  0.00    +0.002 C 
ENDBRANCH  26  27
BRANCH  26  30
ATOM     30  C   VAL A  10       9.203  30.779  14.889  0.00  0.00    +0.227 C 
ATOM     31  O   VAL A  10       9.852  29.736  14.742  0.00  0.00    -0.286 OA
ENDBRANCH  26  30
ENDBRANCH  24  26
ENDBRANCH  21  22
BRANCH  21  32
ATOM     32  CB  THR A   9       9.264  31.241  20.286  0.00  0.00    +0.137 C 
ATOM     33  CG2 THR A   9       8.397  30.211  19.542  0.00  0.00    +0.034 C 
BRANCH  32  34
ATOM     34  OG1 THR A   9       9.880  30.620  21.430  0.00  0.00    -0.382 OA
ATOM     35  HG1 THR A   9      10.407  31.295  21.927  0.00  0.00    +0.210 HD
ENDBRANCH  32  34
ENDBRANCH  21  32
ENDBRANCH  18  21
ENDBRANCH  16  17
BRANCH  16  36
ATOM     36  CB  ASP A   8      12.462  35.642  19.658  0.00  0.00    +0.143 C 
BRANCH  36  37
ATOM     37  CG  ASP A   8      12.884  36.991  20.195  0.00  0.00    +0.367 C 
ATOM     38  OD2 ASP A   8      12.622  37.276  21.376  0.00  0.00    -0.246 OA
ATOM     39  OD1 ASP A   8      13.464  37.774  19.426  0.00  0.00    -0.246 OA
ENDBRANCH  36  37
ENDBRANCH  16  36
ENDBRANCH  14  16
ENDBRANCH  11  12
BRANCH  11  40
ATOM     40  CB  ASP A   7      16.541  36.287  21.872  0.00  0.00    +0.143 C 
BRANCH  40  41
ATOM     41  CG  ASP A   7      17.966  36.693  22.169  0.00  0.00    +0.367 C 
ATOM     42  OD2 ASP A   7      18.809  35.835  22.487  0.00  0.00    -0.246 OA
ATOM     43  OD1 ASP A   7      18.233  37.908  22.078  0.00  0.00    -0.246 OA
ENDBRANCH  40  41
ENDBRANCH  11  40
ENDBRANCH   9  11
ENDBRANCH   5   7
ENDBRANCH   2   5
BRANCH   1  44
ATOM     44  CA  GLY A   5      20.820  30.243  20.393  0.00  0.00    +0.176 C 
BRANCH  44  47
ATOM     45  C   THR A   4      20.015  29.039  22.372  0.00  0.00    +0.243 C 
ATOM     46  O   THR A   4      20.303  29.970  23.131  0.00  0.00    -0.273 OA
ATOM     47  N   GLY A   5      20.261  29.067  21.063  0.00  0.00    -0.295 N 
ATOM     48  H   GLY A   5      20.048  28.222  20.496  0.00  0.00    +0.150 HD
BRANCH  45  49
ATOM     49  CA  THR A   4      19.353  27.779  22.922  0.00  0.00    +0.176 C 
BRANCH  49  51
ATOM     50  C   ASP A   3      17.677  27.343  21.221  0.00  0.00    +0.241 C 
ATOM     51  N   THR A   4      18.764  26.952  21.875  0.00  0.00    -0.295 N 
ATOM     52  H   THR A   4      19.203  26.040  21.637  0.00  0.00    +0.150 HD
ATOM     53  O   ASP A   3      17.123  28.427  21.447  0.00  0.00    -0.273 OA
BRANCH  50  54
ATOM     54  CA  ASP A   3      17.168  26.400  20.132  0.00  0.00    +0.160 C 
BRANCH  54  56
ATOM     55  C   LEU A   2      16.093  24.231  20.486  0.00  0.00    +0.241 C 
ATOM     56  N   ASP A   3      16.058  25.560  20.582  0.00  0.00    -0.297 N 
ATOM     57  H   ASP A   3      15.216  26.014  20.989  0.00  0.00    +0.150 HD
ATOM     58  O   LEU A   2      17.126  23.588  20.302  0.00  0.00    -0.273 OA
BRANCH  55  59
ATOM     59  CA  LEU A   2      14.760  23.502  20.652  0.00  0.00    +0.149 C 
BRANCH  59  61
ATOM     60  C   LEU A   1      13.913  23.633  18.374  0.00  0.00    +0.238 C 
ATOM     61  N   LEU A   2      14.425  22.903  19.360  0.00  0.00    -0.297 N 
ATOM     62  H   LEU A   2      14.590  21.887  19.210  0.00  0.00    +0.150 HD
ATOM     63  O   LEU A   1      13.565  24.800  18.528  0.00  0.00    -0.274 OA
BRANCH  60  64
ATOM     64  CA  LEU A   1      13.761  22.975  17.009  0.00  0.00    +0.145 C 
BRANCH  64  65
ATOM     65  N   LEU A   1      12.392  23.079  16.573  0.00  0.00    -0.238 NA
ATOM     66  H   LEU A   1      12.131  23.894  15.982  0.00  0.00    +0.142 HD
ENDBRANCH  64  65
BRANCH  64  67
ATOM     67  CB  LEU A   1      14.617  23.726  15.987  0.00  0.00    +0.026 C 
BRANCH  67  68
ATOM     68  CG  LEU A   1      16.126  23.625  16.056  0.00  0.00    +0.002 C 
ATOM     69  CD2 LEU A   1      16.571  22.208  15.807  0.00  0.00    +0.000 C 
ATOM     70  CD1 LEU A   1      16.746  24.564  15.023  0.00  0.00    +0.000 C 
ENDBRANCH  67  68
ENDBRANCH  64  67
ENDBRANCH  60  64
ENDBRANCH  59  61
BRANCH  59  71
ATOM     71  CB  LEU A   2      14.878  22.442  21.734  0.00  0.00    +0.029 C 
BRANCH  71  72
ATOM     72  CG  LEU A   2      13.650  21.562  21.958  0.00  0.00    +0.002 C 
ATOM     73  CD2 LEU A   2      13.947  20.551  23.069  0.00  0.00    +0.000 C 
ATOM     74  CD1 LEU A   2      12.410  22.398  22.282  0.00  0.00    +0.000 C 
ENDBRANCH  71  72
ENDBRANCH  59  71
ENDBRANCH  55  59
ENDBRANCH  54  56
BRANCH  54  75
ATOM     75  CB  ASP A   3      16.734  27.210  18.903  0.00  0.00    +0.143 C 
BRANCH  75  76
ATOM     76  CG  ASP A   3      17.898  27.886  18.216  0.00  0.00    +0.367 C 
ATOM     77  OD2 ASP A   3      19.041  27.753  18.691  0.00  0.00    -0.246 OA
ATOM     78  OD1 ASP A   3      17.659  28.538  17.196  0.00  0.00    -0.246 OA
ENDBRANCH  75  76
ENDBRANCH  54  75
ENDBRANCH  50  54
ENDBRANCH  49  51
BRANCH  49  79
ATOM     79  CB  THR A   4      20.374  26.991  23.756  0.00  0.00    +0.137 C 
ATOM     80  CG2 THR A   4      19.669  25.813  24.433  0.00  0.00    +0.034 C 
BRANCH  79  81
ATOM     81  OG1 THR A   4      21.453  26.517  22.922  0.00  0.00    -0.382 OA
ATOM     82  HG1 THR A   4      21.908  27.290  22.503  0.00  0.00    +0.210 HD
ENDBRANCH  79  81
ENDBRANCH  49  79
ENDBRANCH  45  49
ENDBRANCH  44  47
ENDBRANCH   1  44
TORSDOF 35
REMARK  Name = ../refined-set-2016/3el1/3el1_pocket.pdb
REMARK  211 active torsions:
REMARK  status: ('A' for Active; 'I' for Inactive)
REMARK    1  A    between atoms: _1  and  _3
REMARK    2  A    between atoms: _3  and  _4
REMARK    3  A    between atoms: _3  and  _6
REMARK    4  A    between atoms: _6  and  _7
REMARK    5  A    between atoms: _7  and  _8
REMARK    6  A    between atoms: _8  and  _9
REMARK    7  A    between atoms: _18  and  _20
REMARK    8  A    between atoms: _20  and  _21
REMARK    9  A    between atoms: _20  and  _23
REMARK   10  A    between atoms: _23  and  _24
REMARK   11  A    between atoms: _27  and  _29
REMARK   12  A    between atoms: _29  and  _30
REMARK   13  A    between atoms: _29  and  _32
REMARK   14  A    between atoms: _32  and  _33
REMARK   15  A    between atoms: _36  and  _38
REMARK   16  A    between atoms: _38  and  _39
REMARK   17  A    between atoms: _38  and  _41
REMARK   18  A    between atoms: _41  and  _42
REMARK   19  A    between atoms: _45  and  _47
REMARK   20  A    between atoms: _47  and  _48
REMARK   21  A    between atoms: _47  and  _50
REMARK   22  A    between atoms: _50  and  _51
REMARK   23  A    between atoms: _54  and  _56
REMARK   24  A    between atoms: _56  and  _57
REMARK   25  A    between atoms: _59  and  _61
REMARK   26  A    between atoms: _61  and  _62
REMARK   27  A    between atoms: _65  and  _67
REMARK   28  A    between atoms: _67  and  _68
REMARK   29  A    between atoms: _67  and  _70
REMARK   30  A    between atoms: _70  and  _71
REMARK   31  A    between atoms: _74  and  _76
REMARK   32  A    between atoms: _76  and  _77
REMARK   33  A    between atoms: _76  and  _79
REMARK   34  A    between atoms: _79  and  _80
REMARK   35  A    between atoms: _83  and  _85
REMARK   36  A    between atoms: _85  and  _86
REMARK   37  A    between atoms: _85  and  _88
REMARK   38  A    between atoms: _88  and  _89
REMARK   39  A    between atoms: _92  and  _94
REMARK   40  A    between atoms: _94  and  _95
REMARK   41  A    between atoms: _94  and  _97
REMARK   42  A    between atoms: _100  and  _102
REMARK   43  A    between atoms: _102  and  _103
REMARK   44  A    between atoms: _102  and  _105
REMARK   45  A    between atoms: _105  and  _106
REMARK   46  A    between atoms: _106  and  _107
REMARK   47  A    between atoms: _109  and  _111
REMARK   48  A    between atoms: _111  and  _112
REMARK   49  A    between atoms: _111  and  _114
REMARK   50  A    between atoms: _114  and  _115
REMARK   51  A    between atoms: _118  and  _120
REMARK   52  A    between atoms: _120  and  _121
REMARK   53  A    between atoms: _123  and  _125
REMARK   54  A    between atoms: _125  and  _126
REMARK   55  A    between atoms: _128  and  _130
REMARK   56  A    between atoms: _130  and  _131
REMARK   57  A    between atoms: _130  and  _133
REMARK   58  A    between atoms: _133  and  _134
REMARK   59  A    between atoms: _137  and  _139
REMARK   60  A    between atoms: _139  and  _140
REMARK   61  A    between atoms: _142  and  _144
REMARK   62  A    between atoms: _144  and  _145
REMARK   63  A    between atoms: _147  and  _149
REMARK   64  A    between atoms: _149  and  _150
REMARK   65  A    between atoms: _149  and  _152
REMARK   66  A    between atoms: _152  and  _153
REMARK   67  A    between atoms: _159  and  _161
REMARK   68  A    between atoms: _161  and  _162
REMARK   69  A    between atoms: _161  and  _164
REMARK   70  A    between atoms: _164  and  _165
REMARK   71  A    between atoms: _168  and  _170
REMARK   72  A    between atoms: _170  and  _171
REMARK   73  A    between atoms: _170  and  _173
REMARK   74  A    between atoms: _176  and  _178
REMARK   75  A    between atoms: _178  and  _179
REMARK   76  A    between atoms: _178  and  _181
REMARK   77  A    between atoms: _181  and  _182
REMARK   78  A    between atoms: _186  and  _187
REMARK   79  A    between atoms: _192  and  _194
REMARK   80  A    between atoms: _194  and  _195
REMARK   81  A    between atoms: _194  and  _197
REMARK   82  A    between atoms: _197  and  _198
REMARK   83  A    between atoms: _202  and  _203
REMARK   84  A    between atoms: _208  and  _210
REMARK   85  A    between atoms: _210  and  _211
REMARK   86  A    between atoms: _210  and  _213
REMARK   87  A    between atoms: _216  and  _218
REMARK   88  A    between atoms: _218  and  _219
REMARK   89  A    between atoms: _218  and  _221
REMARK   90  A    between atoms: _221  and  _222
REMARK   91  A    between atoms: _227  and  _229
REMARK   92  A    between atoms: _229  and  _230
REMARK   93  A    between atoms: _229  and  _232
REMARK   94  A    between atoms: _232  and  _233
REMARK   95  A    between atoms: _236  and  _238
REMARK   96  A    between atoms: _238  and  _239
REMARK   97  A    between atoms: _238  and  _241
REMARK   98  A    between atoms: _241  and  _242
REMARK   99  A    between atoms: _245  and  _247
REMARK  100  A    between atoms: _247  and  _248
REMARK  101  A    between atoms: _250  and  _252
REMARK  102  A    between atoms: _252  and  _253
REMARK  103  A    between atoms: _252  and  _255
REMARK  104  A    between atoms: _255  and  _256
REMARK  105  A    between atoms: _256  and  _257
REMARK  106  A    between atoms: _257  and  _258
REMARK  107  A    between atoms: _267  and  _269
REMARK  108  A    between atoms: _269  and  _270
REMARK  109  A    between atoms: _269  and  _272
REMARK  110  A    between atoms: _272  and  _273
REMARK  111  A    between atoms: _273  and  _274
REMARK  112  A    between atoms: _274  and  _275
REMARK  113  A    between atoms: _284  and  _286
REMARK  114  A    between atoms: _286  and  _287
REMARK  115  A    between atoms: _286  and  _289
REMARK  116  A    between atoms: _289  and  _290
REMARK  117  A    between atoms: _293  and  _295
REMARK  118  A    between atoms: _295  and  _296
REMARK  119  A    between atoms: _295  and  _298
REMARK  120  A    between atoms: _298  and  _299
REMARK  121  A    between atoms: _302  and  _304
REMARK  122  A    between atoms: _304  and  _305
REMARK  123  A    between atoms: _304  and  _307
REMARK  124  A    between atoms: _307  and  _308
REMARK  125  A    between atoms: _311  and  _313
REMARK  126  A    between atoms: _313  and  _314
REMARK  127  A    between atoms: _313  and  _316
REMARK  128  A    between atoms: _316  and  _317
REMARK  129  A    between atoms: _320  and  _322
REMARK  130  A    between atoms: _322  and  _323
REMARK  131  A    between atoms: _325  and  _327
REMARK  132  A    between atoms: _327  and  _328
REMARK  133  A    between atoms: _331  and  _333
REMARK  134  A    between atoms: _333  and  _334
REMARK  135  A    between atoms: _333  and  _336
REMARK  136  A    between atoms: _336  and  _337
REMARK  137  A    between atoms: _340  and  _342
REMARK  138  A    between atoms: _342  and  _343
REMARK  139  A    between atoms: _342  and  _345
REMARK  140  A    between atoms: _345  and  _346
REMARK  141  A    between atoms: _349  and  _351
REMARK  142  A    between atoms: _351  and  _352
REMARK  143  A    between atoms: _351  and  _354
REMARK  144  A    between atoms: _354  and  _355
REMARK  145  A    between atoms: _358  and  _360
REMARK  146  A    between atoms: _360  and  _361
REMARK  147  A    between atoms: _360  and  _363
REMARK  148  A    between atoms: _366  and  _368
REMARK  149  A    between atoms: _368  and  _369
REMARK  150  A    between atoms: _368  and  _371
REMARK  151  A    between atoms: _371  and  _372
REMARK  152  A    between atoms: _375  and  _377
REMARK  153  A    between atoms: _377  and  _378
REMARK  154  A    between atoms: _380  and  _382
REMARK  155  A    between atoms: _382  and  _383
REMARK  156  A    between atoms: _385  and  _387
REMARK  157  A    between atoms: _387  and  _388
REMARK  158  A    between atoms: _387  and  _390
REMARK  159  A    between atoms: _390  and  _391
REMARK  160  A    between atoms: _394  and  _396
REMARK  161  A    between atoms: _396  and  _397
REMARK  162  A    between atoms: _399  and  _401
REMARK  163  A    between atoms: _401  and  _402
REMARK  164  A    between atoms: _404  and  _406
REMARK  165  A    between atoms: _406  and  _407
REMARK  166  A    between atoms: _406  and  _409
REMARK  167  A    between atoms: _409  and  _410
REMARK  168  A    between atoms: _416  and  _418
REMARK  169  A    between atoms: _418  and  _419
REMARK  170  A    between atoms: _418  and  _421
REMARK  171  A    between atoms: _421  and  _422
REMARK  172  A    between atoms: _425  and  _427
REMARK  173  A    between atoms: _427  and  _428
REMARK  174  A    between atoms: _427  and  _430
REMARK  175  A    between atoms: _433  and  _435
REMARK  176  A    between atoms: _435  and  _436
REMARK  177  A    between atoms: _435  and  _438
REMARK  178  A    between atoms: _438  and  _439
REMARK  179  A    between atoms: _443  and  _444
REMARK  180  A    between atoms: _449  and  _451
REMARK  181  A    between atoms: _451  and  _452
REMARK  182  A    between atoms: _451  and  _454
REMARK  183  A    between atoms: _454  and  _455
REMARK  184  A    between atoms: _459  and  _460
REMARK  185  A    between atoms: _465  and  _467
REMARK  186  A    between atoms: _467  and  _468
REMARK  187  A    between atoms: _467  and  _470
REMARK  188  A    between atoms: _473  and  _475
REMARK  189  A    between atoms: _475  and  _476
REMARK  190  A    between atoms: _475  and  _478
REMARK  191  A    between atoms: _478  and  _479
REMARK  192  A    between atoms: _484  and  _486
REMARK  193  A    between atoms: _486  and  _487
REMARK  194  A    between atoms: _486  and  _489
REMARK  195  A    between atoms: _489  and  _490
REMARK  196  A    between atoms: _493  and  _495
REMARK  197  A    between atoms: _495  and  _496
REMARK  198  A    between atoms: _495  and  _498
REMARK  199  A    between atoms: _498  and  _499
REMARK  200  A    between atoms: _502  and  _504
REMARK  201  A    between atoms: _504  and  _505
REMARK  202  A    between atoms: _507  and  _509
REMARK  203  A    between atoms: _509  and  _510
REMARK  204  A    between atoms: _509  and  _512
REMARK  205  A    between atoms: _512  and  _513
REMARK  206  A    between atoms: _513  and  _514
REMARK  207  A    between atoms: _514  and  _515
REMARK  208  A    between atoms: _524  and  _526
REMARK  209  A    between atoms: _526  and  _527
REMARK  210  A    between atoms: _526  and  _529
REMARK  211  A    between atoms: _529  and  _530
REMARK                            x       y       z     vdW  Elec       q    Type
REMARK                         _______ _______ _______ _____ _____    ______ ____
ROOT
ATOM      1  CA  ILE A   5      22.948  34.773  10.379  0.00  0.00    +0.149 C 
ENDROOT
BRANCH   1   3
ATOM      2  C   GLY A   4      21.095  35.985  11.406  0.00  0.00    +0.243 C 
ATOM      3  N   ILE A   5      21.680  34.834  11.093  0.00  0.00    -0.297 N 
ATOM      4  H   ILE A   5      21.216  33.945  11.368  0.00  0.00    +0.150 HD
ATOM      5  O   GLY A   4      21.500  37.086  11.003  0.00  0.00    -0.273 OA
BRANCH   2   6
ATOM      6  CA  GLY A   4      19.847  35.873  12.250  0.00  0.00    +0.176 C 
BRANCH   6   9
ATOM      7  C   GLY A   3      18.583  37.756  13.105  0.00  0.00    +0.243 C 
ATOM      8  O   GLY A   3      18.615  37.352  14.267  0.00  0.00    -0.273 OA
ATOM      9  N   GLY A   4      19.042  37.066  12.076  0.00  0.00    -0.295 N 
ATOM     10  H   GLY A   4      18.819  37.388  11.113  0.00  0.00    +0.150 HD
BRANCH   7  11
ATOM     11  CA  GLY A   3      17.974  39.086  12.755  0.00  0.00    +0.176 C 
BRANCH  11  13
ATOM     12  C   ILE A   2      15.583  39.424  12.904  0.00  0.00    +0.241 C 
ATOM     13  N   GLY A   3      16.765  39.322  13.496  0.00  0.00    -0.295 N 
ATOM     14  H   GLY A   3      16.819  39.416  14.530  0.00  0.00    +0.150 HD
ATOM     15  O   ILE A   2      15.394  39.228  11.702  0.00  0.00    -0.273 OA
BRANCH  12  16
ATOM     16  CA  ILE A   2      14.454  39.858  13.815  0.00  0.00    +0.148 C 
BRANCH  16  19
ATOM     17  C   MET A   1      13.253  41.937  13.368  0.00  0.00    +0.238 C 
ATOM     18  O   MET A   1      13.747  42.517  14.341  0.00  0.00    -0.274 OA
ATOM     19  N   ILE A   2      13.530  40.679  13.041  0.00  0.00    -0.297 N 
ATOM     20  H   ILE A   2      13.072  40.266  12.204  0.00  0.00    +0.150 HD
BRANCH  17  21
ATOM     21  CA  MET A   1      12.239  42.633  12.479  0.00  0.00    +0.146 C 
BRANCH  21  22
ATOM     22  N   MET A   1      11.202  43.199  13.317  0.00  0.00    -0.238 NA
ATOM     23  H   MET A   1      11.451  43.913  14.031  0.00  0.00    +0.142 HD
ENDBRANCH  21  22
BRANCH  21  24
ATOM     24  CB  MET A   1      12.874  43.713  11.610  0.00  0.00    +0.038 C 
BRANCH  24  25
ATOM     25  CG  MET A   1      11.875  44.284  10.606  0.00  0.00    +0.060 C 
BRANCH  25  26
ATOM     26  SD  MET A   1      12.602  45.301   9.324  0.00  0.00    -0.139 S 
ATOM     27  CE  MET A   1      13.783  44.151   8.634  0.00  0.00    +0.069 C 
ENDBRANCH  25  26
ENDBRANCH  24  25
ENDBRANCH  21  24
ENDBRANCH  17  21
ENDBRANCH  16  19
BRANCH  16  28
ATOM     28  CB  ILE A   2      13.778  38.647  14.469  0.00  0.00    +0.027 C 
ATOM     29  CG2 ILE A   2      12.733  39.115  15.478  0.00  0.00    +0.002 C 
BRANCH  28  30
ATOM     30  CG1 ILE A   2      13.159  37.709  13.428  0.00  0.00    +0.002 C 
ATOM     31  CD1 ILE A   2      12.619  36.432  14.044  0.00  0.00    +0.000 C 
ENDBRANCH  28  30
ENDBRANCH  16  28
ENDBRANCH  12  16
ENDBRANCH  11  13
ENDBRANCH   7  11
ENDBRANCH   6   9
ENDBRANCH   2   6
ENDBRANCH   1   3
BRANCH   1  32
ATOM     32  C   ILE A   5      22.962  35.539   9.052  0.00  0.00    +0.241 C 
ATOM     33  O   ILE A   5      23.937  36.212   8.747  0.00  0.00    -0.273 OA
ATOM     34  N   GLY A   6      21.889  35.444   8.274  0.00  0.00    -0.295 N 
ATOM     35  H   GLY A   6      21.034  34.974   8.633  0.00  0.00    +0.150 HD
BRANCH  34  36
ATOM     36  CA  GLY A   6      21.897  35.996   6.910  0.00  0.00    +0.176 C 
BRANCH  36  37
ATOM     37  C   GLY A   6      21.304  37.388   6.763  0.00  0.00    +0.243 C 
ATOM     38  N   GLY A   7      20.899  37.976   7.884  0.00  0.00    -0.295 N 
ATOM     39  H   GLY A   7      21.073  37.484   8.784  0.00  0.00    +0.150 HD
ATOM     40  O   GLY A   6      21.216  37.913   5.654  0.00  0.00    -0.273 OA
BRANCH  38  41
ATOM     41  CA  GLY A   7      20.225  39.270   7.929  0.00  0.00    +0.176 C 
BRANCH  41  42
ATOM     42  C   GLY A   7      18.911  39.210   8.670  0.00  0.00    +0.243 C 
ATOM     43  O   GLY A   7      18.683  38.302   9.485  0.00  0.00    -0.273 OA
ATOM     44  N   PHE A   8      18.043  40.169   8.358  0.00  0.00    -0.297 N 
ATOM     45  H   PHE A   8      18.263  40.806   7.566  0.00  0.00    +0.150 HD
BRANCH  44  46
ATOM     46  CA  PHE A   8      16.792  40.358   9.089  0.00  0.00    +0.153 C 
BRANCH  46  47
ATOM     47  C   PHE A   8      15.590  39.956   8.257  0.00  0.00    +0.241 C 
ATOM     48  N   ILE A   9      14.571  39.430   8.929  0.00  0.00    -0.298 N 
ATOM     49  H   ILE A   9      14.700  39.193   9.933  0.00  0.00    +0.150 HD
ATOM     50  O   PHE A   8      15.594  40.122   7.033  0.00  0.00    -0.273 OA
BRANCH  48  51
ATOM     51  CA  ILE A   9      13.274  39.173   8.304  0.00  0.00    +0.137 C 
BRANCH  51  52
ATOM     52  CB  ILE A   9      12.944  37.666   8.199  0.00  0.00    +0.026 C 
ATOM     53  CG2 ILE A   9      13.966  36.957   7.296  0.00  0.00    +0.002 C 
BRANCH  52  54
ATOM     54  CG1 ILE A   9      12.858  37.009   9.580  0.00  0.00    +0.002 C 
ATOM     55  CD1 ILE A   9      12.243  35.612   9.546  0.00  0.00    +0.000 C 
ENDBRANCH  52  54
ENDBRANCH  51  52
BRANCH  51  56
ATOM     56  C   ILE A   9      12.185  39.877   9.093  0.00  0.00    +0.227 C 
ATOM     57  O   ILE A   9      12.337  40.132  10.289  0.00  0.00    -0.286 OA
ENDBRANCH  51  56
ENDBRANCH  48  51
ENDBRANCH  46  47
BRANCH  46  58
ATOM     58  CB  PHE A   8      16.662  41.812   9.514  0.00  0.00    +0.055 C 
BRANCH  58  59
ATOM     59  CG  PHE A   8      17.496  42.165  10.723  0.00  0.00    -0.020 A 
ATOM     60  CD2 PHE A   8      16.918  42.311  11.973  0.00  0.00    -0.004 A 
ATOM     61  CE2 PHE A   8      17.693  42.649  13.074  0.00  0.00    -0.000 A 
ATOM     62  CZ  PHE A   8      19.059  42.806  12.940  0.00  0.00    -0.000 A 
ATOM     63  CE1 PHE A   8      19.644  42.663  11.705  0.00  0.00    -0.000 A 
ATOM     64  CD1 PHE A   8      18.865  42.340  10.607  0.00  0.00    -0.004 A 
ENDBRANCH  58  59
ENDBRANCH  46  58
ENDBRANCH  44  46
ENDBRANCH  41  42
ENDBRANCH  38  41
ENDBRANCH  36  37
ENDBRANCH  34  36
ENDBRANCH   1  32
BRANCH   1  65
ATOM     65  CB  ILE A   5      23.386  33.302  10.144  0.00  0.00    +0.027 C 
ATOM     66  CG2 ILE A   5      24.174  33.159   8.853  0.00  0.00    +0.002 C 
BRANCH  65  67
ATOM     67  CG1 ILE A   5      24.250  32.824  11.313  0.00  0.00    +0.002 C 
ATOM     68  CD1 ILE A   5      25.617  33.486  11.371  0.00  0.00    +0.000 C 
ENDBRANCH  65  67
ENDBRANCH   1  65
TORSDOF 29
REMARK  Name = ../refined-set-2016/3el1/3el1_pocket.pdb
REMARK  211 active torsions:
REMARK  status: ('A' for Active; 'I' for Inactive)
REMARK    1  A    between atoms: _1  and  _3
REMARK    2  A    between atoms: _3  and  _4
REMARK    3  A    between atoms: _3  and  _6
REMARK    4  A    between atoms: _6  and  _7
REMARK    5  A    between atoms: _7  and  _8
REMARK    6  A    between atoms: _8  and  _9
REMARK    7  A    between atoms: _18  and  _20
REMARK    8  A    between atoms: _20  and  _21
REMARK    9  A    between atoms: _20  and  _23
REMARK   10  A    between atoms: _23  and  _24
REMARK   11  A    between atoms: _27  and  _29
REMARK   12  A    between atoms: _29  and  _30
REMARK   13  A    between atoms: _29  and  _32
REMARK   14  A    between atoms: _32  and  _33
REMARK   15  A    between atoms: _36  and  _38
REMARK   16  A    between atoms: _38  and  _39
REMARK   17  A    between atoms: _38  and  _41
REMARK   18  A    between atoms: _41  and  _42
REMARK   19  A    between atoms: _45  and  _47
REMARK   20  A    between atoms: _47  and  _48
REMARK   21  A    between atoms: _47  and  _50
REMARK   22  A    between atoms: _50  and  _51
REMARK   23  A    between atoms: _54  and  _56
REMARK   24  A    between atoms: _56  and  _57
REMARK   25  A    between atoms: _59  and  _61
REMARK   26  A    between atoms: _61  and  _62
REMARK   27  A    between atoms: _65  and  _67
REMARK   28  A    between atoms: _67  and  _68
REMARK   29  A    between atoms: _67  and  _70
REMARK   30  A    between atoms: _70  and  _71
REMARK   31  A    between atoms: _74  and  _76
REMARK   32  A    between atoms: _76  and  _77
REMARK   33  A    between atoms: _76  and  _79
REMARK   34  A    between atoms: _79  and  _80
REMARK   35  A    between atoms: _83  and  _85
REMARK   36  A    between atoms: _85  and  _86
REMARK   37  A    between atoms: _85  and  _88
REMARK   38  A    between atoms: _88  and  _89
REMARK   39  A    between atoms: _92  and  _94
REMARK   40  A    between atoms: _94  and  _95
REMARK   41  A    between atoms: _94  and  _97
REMARK   42  A    between atoms: _100  and  _102
REMARK   43  A    between atoms: _102  and  _103
REMARK   44  A    between atoms: _102  and  _105
REMARK   45  A    between atoms: _105  and  _106
REMARK   46  A    between atoms: _106  and  _107
REMARK   47  A    between atoms: _109  and  _111
REMARK   48  A    between atoms: _111  and  _112
REMARK   49  A    between atoms: _111  and  _114
REMARK   50  A    between atoms: _114  and  _115
REMARK   51  A    between atoms: _118  and  _120
REMARK   52  A    between atoms: _120  and  _121
REMARK   53  A    between atoms: _123  and  _125
REMARK   54  A    between atoms: _125  and  _126
REMARK   55  A    between atoms: _128  and  _130
REMARK   56  A    between atoms: _130  and  _131
REMARK   57  A    between atoms: _130  and  _133
REMARK   58  A    between atoms: _133  and  _134
REMARK   59  A    between atoms: _137  and  _139
REMARK   60  A    between atoms: _139  and  _140
REMARK   61  A    between atoms: _142  and  _144
REMARK   62  A    between atoms: _144  and  _145
REMARK   63  A    between atoms: _147  and  _149
REMARK   64  A    between atoms: _149  and  _150
REMARK   65  A    between atoms: _149  and  _152
REMARK   66  A    between atoms: _152  and  _153
REMARK   67  A    between atoms: _159  and  _161
REMARK   68  A    between atoms: _161  and  _162
REMARK   69  A    between atoms: _161  and  _164
REMARK   70  A    between atoms: _164  and  _165
REMARK   71  A    between atoms: _168  and  _170
REMARK   72  A    between atoms: _170  and  _171
REMARK   73  A    between atoms: _170  and  _173
REMARK   74  A    between atoms: _176  and  _178
REMARK   75  A    between atoms: _178  and  _179
REMARK   76  A    between atoms: _178  and  _181
REMARK   77  A    between atoms: _181  and  _182
REMARK   78  A    between atoms: _186  and  _187
REMARK   79  A    between atoms: _192  and  _194
REMARK   80  A    between atoms: _194  and  _195
REMARK   81  A    between atoms: _194  and  _197
REMARK   82  A    between atoms: _197  and  _198
REMARK   83  A    between atoms: _202  and  _203
REMARK   84  A    between atoms: _208  and  _210
REMARK   85  A    between atoms: _210  and  _211
REMARK   86  A    between atoms: _210  and  _213
REMARK   87  A    between atoms: _216  and  _218
REMARK   88  A    between atoms: _218  and  _219
REMARK   89  A    between atoms: _218  and  _221
REMARK   90  A    between atoms: _221  and  _222
REMARK   91  A    between atoms: _227  and  _229
REMARK   92  A    between atoms: _229  and  _230
REMARK   93  A    between atoms: _229  and  _232
REMARK   94  A    between atoms: _232  and  _233
REMARK   95  A    between atoms: _236  and  _238
REMARK   96  A    between atoms: _238  and  _239
REMARK   97  A    between atoms: _238  and  _241
REMARK   98  A    between atoms: _241  and  _242
REMARK   99  A    between atoms: _245  and  _247
REMARK  100  A    between atoms: _247  and  _248
REMARK  101  A    between atoms: _250  and  _252
REMARK  102  A    between atoms: _252  and  _253
REMARK  103  A    between atoms: _252  and  _255
REMARK  104  A    between atoms: _255  and  _256
REMARK  105  A    between atoms: _256  and  _257
REMARK  106  A    between atoms: _257  and  _258
REMARK  107  A    between atoms: _267  and  _269
REMARK  108  A    between atoms: _269  and  _270
REMARK  109  A    between atoms: _269  and  _272
REMARK  110  A    between atoms: _272  and  _273
REMARK  111  A    between atoms: _273  and  _274
REMARK  112  A    between atoms: _274  and  _275
REMARK  113  A    between atoms: _284  and  _286
REMARK  114  A    between atoms: _286  and  _287
REMARK  115  A    between atoms: _286  and  _289
REMARK  116  A    between atoms: _289  and  _290
REMARK  117  A    between atoms: _293  and  _295
REMARK  118  A    between atoms: _295  and  _296
REMARK  119  A    between atoms: _295  and  _298
REMARK  120  A    between atoms: _298  and  _299
REMARK  121  A    between atoms: _302  and  _304
REMARK  122  A    between atoms: _304  and  _305
REMARK  123  A    between atoms: _304  and  _307
REMARK  124  A    between atoms: _307  and  _308
REMARK  125  A    between atoms: _311  and  _313
REMARK  126  A    between atoms: _313  and  _314
REMARK  127  A    between atoms: _313  and  _316
REMARK  128  A    between atoms: _316  and  _317
REMARK  129  A    between atoms: _320  and  _322
REMARK  130  A    between atoms: _322  and  _323
REMARK  131  A    between atoms: _325  and  _327
REMARK  132  A    between atoms: _327  and  _328
REMARK  133  A    between atoms: _331  and  _333
REMARK  134  A    between atoms: _333  and  _334
REMARK  135  A    between atoms: _333  and  _336
REMARK  136  A    between atoms: _336  and  _337
REMARK  137  A    between atoms: _340  and  _342
REMARK  138  A    between atoms: _342  and  _343
REMARK  139  A    between atoms: _342  and  _345
REMARK  140  A    between atoms: _345  and  _346
REMARK  141  A    between atoms: _349  and  _351
REMARK  142  A    between atoms: _351  and  _352
REMARK  143  A    between atoms: _351  and  _354
REMARK  144  A    between atoms: _354  and  _355
REMARK  145  A    between atoms: _358  and  _360
REMARK  146  A    between atoms: _360  and  _361
REMARK  147  A    between atoms: _360  and  _363
REMARK  148  A    between atoms: _366  and  _368
REMARK  149  A    between atoms: _368  and  _369
REMARK  150  A    between atoms: _368  and  _371
REMARK  151  A    between atoms: _371  and  _372
REMARK  152  A    between atoms: _375  and  _377
REMARK  153  A    between atoms: _377  and  _378
REMARK  154  A    between atoms: _380  and  _382
REMARK  155  A    between atoms: _382  and  _383
REMARK  156  A    between atoms: _385  and  _387
REMARK  157  A    between atoms: _387  and  _388
REMARK  158  A    between atoms: _387  and  _390
REMARK  159  A    between atoms: _390  and  _391
REMARK  160  A    between atoms: _394  and  _396
REMARK  161  A    between atoms: _396  and  _397
REMARK  162  A    between atoms: _399  and  _401
REMARK  163  A    between atoms: _401  and  _402
REMARK  164  A    between atoms: _404  and  _406
REMARK  165  A    between atoms: _406  and  _407
REMARK  166  A    between atoms: _406  and  _409
REMARK  167  A    between atoms: _409  and  _410
REMARK  168  A    between atoms: _416  and  _418
REMARK  169  A    between atoms: _418  and  _419
REMARK  170  A    between atoms: _418  and  _421
REMARK  171  A    between atoms: _421  and  _422
REMARK  172  A    between atoms: _425  and  _427
REMARK  173  A    between atoms: _427  and  _428
REMARK  174  A    between atoms: _427  and  _430
REMARK  175  A    between atoms: _433  and  _435
REMARK  176  A    between atoms: _435  and  _436
REMARK  177  A    between atoms: _435  and  _438
REMARK  178  A    between atoms: _438  and  _439
REMARK  179  A    between atoms: _443  and  _444
REMARK  180  A    between atoms: _449  and  _451
REMARK  181  A    between atoms: _451  and  _452
REMARK  182  A    between atoms: _451  and  _454
REMARK  183  A    between atoms: _454  and  _455
REMARK  184  A    between atoms: _459  and  _460
REMARK  185  A    between atoms: _465  and  _467
REMARK  186  A    between atoms: _467  and  _468
REMARK  187  A    between atoms: _467  and  _470
REMARK  188  A    between atoms: _473  and  _475
REMARK  189  A    between atoms: _475  and  _476
REMARK  190  A    between atoms: _475  and  _478
REMARK  191  A    between atoms: _478  and  _479
REMARK  192  A    between atoms: _484  and  _486
REMARK  193  A    between atoms: _486  and  _487
REMARK  194  A    between atoms: _486  and  _489
REMARK  195  A    between atoms: _489  and  _490
REMARK  196  A    between atoms: _493  and  _495
REMARK  197  A    between atoms: _495  and  _496
REMARK  198  A    between atoms: _495  and  _498
REMARK  199  A    between atoms: _498  and  _499
REMARK  200  A    between atoms: _502  and  _504
REMARK  201  A    between atoms: _504  and  _505
REMARK  202  A    between atoms: _507  and  _509
REMARK  203  A    between atoms: _509  and  _510
REMARK  204  A    between atoms: _509  and  _512
REMARK  205  A    between atoms: _512  and  _513
REMARK  206  A    between atoms: _513  and  _514
REMARK  207  A    between atoms: _514  and  _515
REMARK  208  A    between atoms: _524  and  _526
REMARK  209  A    between atoms: _526  and  _527
REMARK  210  A    between atoms: _526  and  _529
REMARK  211  A    between atoms: _529  and  _530
REMARK                            x       y       z     vdW  Elec       q    Type
REMARK                         _______ _______ _______ _____ _____    ______ ____
ROOT
ATOM      1  CA  VAL A   1       7.693  38.863  11.437  0.00  0.00    +0.133 C 
ENDROOT
BRANCH   1   2
ATOM      2  CB  VAL A   1       8.445  38.032  12.490  0.00  0.00    +0.023 C 
ATOM      3  CG2 VAL A   1       9.025  38.941  13.579  0.00  0.00    +0.002 C 
ATOM      4  CG1 VAL A   1       9.536  37.203  11.823  0.00  0.00    +0.002 C 
ENDBRANCH   1   2
BRANCH   1   5
ATOM      5  N   VAL A   1       8.581  39.815  10.785  0.00  0.00    -0.239 NA
ATOM      6  H   VAL A   1       8.896  40.650  11.319  0.00  0.00    +0.142 HD
ENDBRANCH   1   5
BRANCH   1   7
ATOM      7  C   VAL A   1       6.532  39.585  12.108  0.00  0.00    +0.224 C 
ATOM      8  O   VAL A   1       6.549  40.808  12.264  0.00  0.00    -0.287 OA
ENDBRANCH   1   7
TORSDOF 3
REMARK  Name = ../refined-set-2016/3el1/3el1_pocket.pdb
REMARK  211 active torsions:
REMARK  status: ('A' for Active; 'I' for Inactive)
REMARK    1  A    between atoms: _1  and  _3
REMARK    2  A    between atoms: _3  and  _4
REMARK    3  A    between atoms: _3  and  _6
REMARK    4  A    between atoms: _6  and  _7
REMARK    5  A    between atoms: _7  and  _8
REMARK    6  A    between atoms: _8  and  _9
REMARK    7  A    between atoms: _18  and  _20
REMARK    8  A    between atoms: _20  and  _21
REMARK    9  A    between atoms: _20  and  _23
REMARK   10  A    between atoms: _23  and  _24
REMARK   11  A    between atoms: _27  and  _29
REMARK   12  A    between atoms: _29  and  _30
REMARK   13  A    between atoms: _29  and  _32
REMARK   14  A    between atoms: _32  and  _33
REMARK   15  A    between atoms: _36  and  _38
REMARK   16  A    between atoms: _38  and  _39
REMARK   17  A    between atoms: _38  and  _41
REMARK   18  A    between atoms: _41  and  _42
REMARK   19  A    between atoms: _45  and  _47
REMARK   20  A    between atoms: _47  and  _48
REMARK   21  A    between atoms: _47  and  _50
REMARK   22  A    between atoms: _50  and  _51
REMARK   23  A    between atoms: _54  and  _56
REMARK   24  A    between atoms: _56  and  _57
REMARK   25  A    between atoms: _59  and  _61
REMARK   26  A    between atoms: _61  and  _62
REMARK   27  A    between atoms: _65  and  _67
REMARK   28  A    between atoms: _67  and  _68
REMARK   29  A    between atoms: _67  and  _70
REMARK   30  A    between atoms: _70  and  _71
REMARK   31  A    between atoms: _74  and  _76
REMARK   32  A    between atoms: _76  and  _77
REMARK   33  A    between atoms: _76  and  _79
REMARK   34  A    between atoms: _79  and  _80
REMARK   35  A    between atoms: _83  and  _85
REMARK   36  A    between atoms: _85  and  _86
REMARK   37  A    between atoms: _85  and  _88
REMARK   38  A    between atoms: _88  and  _89
REMARK   39  A    between atoms: _92  and  _94
REMARK   40  A    between atoms: _94  and  _95
REMARK   41  A    between atoms: _94  and  _97
REMARK   42  A    between atoms: _100  and  _102
REMARK   43  A    between atoms: _102  and  _103
REMARK   44  A    between atoms: _102  and  _105
REMARK   45  A    between atoms: _105  and  _106
REMARK   46  A    between atoms: _106  and  _107
REMARK   47  A    between atoms: _109  and  _111
REMARK   48  A    between atoms: _111  and  _112
REMARK   49  A    between atoms: _111  and  _114
REMARK   50  A    between atoms: _114  and  _115
REMARK   51  A    between atoms: _118  and  _120
REMARK   52  A    between atoms: _120  and  _121
REMARK   53  A    between atoms: _123  and  _125
REMARK   54  A    between atoms: _125  and  _126
REMARK   55  A    between atoms: _128  and  _130
REMARK   56  A    between atoms: _130  and  _131
REMARK   57  A    between atoms: _130  and  _133
REMARK   58  A    between atoms: _133  and  _134
REMARK   59  A    between atoms: _137  and  _139
REMARK   60  A    between atoms: _139  and  _140
REMARK   61  A    between atoms: _142  and  _144
REMARK   62  A    between atoms: _144  and  _145
REMARK   63  A    between atoms: _147  and  _149
REMARK   64  A    between atoms: _149  and  _150
REMARK   65  A    between atoms: _149  and  _152
REMARK   66  A    between atoms: _152  and  _153
REMARK   67  A    between atoms: _159  and  _161
REMARK   68  A    between atoms: _161  and  _162
REMARK   69  A    between atoms: _161  and  _164
REMARK   70  A    between atoms: _164  and  _165
REMARK   71  A    between atoms: _168  and  _170
REMARK   72  A    between atoms: _170  and  _171
REMARK   73  A    between atoms: _170  and  _173
REMARK   74  A    between atoms: _176  and  _178
REMARK   75  A    between atoms: _178  and  _179
REMARK   76  A    between atoms: _178  and  _181
REMARK   77  A    between atoms: _181  and  _182
REMARK   78  A    between atoms: _186  and  _187
REMARK   79  A    between atoms: _192  and  _194
REMARK   80  A    between atoms: _194  and  _195
REMARK   81  A    between atoms: _194  and  _197
REMARK   82  A    between atoms: _197  and  _198
REMARK   83  A    between atoms: _202  and  _203
REMARK   84  A    between atoms: _208  and  _210
REMARK   85  A    between atoms: _210  and  _211
REMARK   86  A    between atoms: _210  and  _213
REMARK   87  A    between atoms: _216  and  _218
REMARK   88  A    between atoms: _218  and  _219
REMARK   89  A    between atoms: _218  and  _221
REMARK   90  A    between atoms: _221  and  _222
REMARK   91  A    between atoms: _227  and  _229
REMARK   92  A    between atoms: _229  and  _230
REMARK   93  A    between atoms: _229  and  _232
REMARK   94  A    between atoms: _232  and  _233
REMARK   95  A    between atoms: _236  and  _238
REMARK   96  A    between atoms: _238  and  _239
REMARK   97  A    between atoms: _238  and  _241
REMARK   98  A    between atoms: _241  and  _242
REMARK   99  A    between atoms: _245  and  _247
REMARK  100  A    between atoms: _247  and  _248
REMARK  101  A    between atoms: _250  and  _252
REMARK  102  A    between atoms: _252  and  _253
REMARK  103  A    between atoms: _252  and  _255
REMARK  104  A    between atoms: _255  and  _256
REMARK  105  A    between atoms: _256  and  _257
REMARK  106  A    between atoms: _257  and  _258
REMARK  107  A    between atoms: _267  and  _269
REMARK  108  A    between atoms: _269  and  _270
REMARK  109  A    between atoms: _269  and  _272
REMARK  110  A    between atoms: _272  and  _273
REMARK  111  A    between atoms: _273  and  _274
REMARK  112  A    between atoms: _274  and  _275
REMARK  113  A    between atoms: _284  and  _286
REMARK  114  A    between atoms: _286  and  _287
REMARK  115  A    between atoms: _286  and  _289
REMARK  116  A    between atoms: _289  and  _290
REMARK  117  A    between atoms: _293  and  _295
REMARK  118  A    between atoms: _295  and  _296
REMARK  119  A    between atoms: _295  and  _298
REMARK  120  A    between atoms: _298  and  _299
REMARK  121  A    between atoms: _302  and  _304
REMARK  122  A    between atoms: _304  and  _305
REMARK  123  A    between atoms: _304  and  _307
REMARK  124  A    between atoms: _307  and  _308
REMARK  125  A    between atoms: _311  and  _313
REMARK  126  A    between atoms: _313  and  _314
REMARK  127  A    between atoms: _313  and  _316
REMARK  128  A    between atoms: _316  and  _317
REMARK  129  A    between atoms: _320  and  _322
REMARK  130  A    between atoms: _322  and  _323
REMARK  131  A    between atoms: _325  and  _327
REMARK  132  A    between atoms: _327  and  _328
REMARK  133  A    between atoms: _331  and  _333
REMARK  134  A    between atoms: _333  and  _334
REMARK  135  A    between atoms: _333  and  _336
REMARK  136  A    between atoms: _336  and  _337
REMARK  137  A    between atoms: _340  and  _342
REMARK  138  A    between atoms: _342  and  _343
REMARK  139  A    between atoms: _342  and  _345
REMARK  140  A    between atoms: _345  and  _346
REMARK  141  A    between atoms: _349  and  _351
REMARK  142  A    between atoms: _351  and  _352
REMARK  143  A    between atoms: _351  and  _354
REMARK  144  A    between atoms: _354  and  _355
REMARK  145  A    between atoms: _358  and  _360
REMARK  146  A    between atoms: _360  and  _361
REMARK  147  A    between atoms: _360  and  _363
REMARK  148  A    between atoms: _366  and  _368
REMARK  149  A    between atoms: _368  and  _369
REMARK  150  A    between atoms: _368  and  _371
REMARK  151  A    between atoms: _371  and  _372
REMARK  152  A    between atoms: _375  and  _377
REMARK  153  A    between atoms: _377  and  _378
REMARK  154  A    between atoms: _380  and  _382
REMARK  155  A    between atoms: _382  and  _383
REMARK  156  A    between atoms: _385  and  _387
REMARK  157  A    between atoms: _387  and  _388
REMARK  158  A    between atoms: _387  and  _390
REMARK  159  A    between atoms: _390  and  _391
REMARK  160  A    between atoms: _394  and  _396
REMARK  161  A    between atoms: _396  and  _397
REMARK  162  A    between atoms: _399  and  _401
REMARK  163  A    between atoms: _401  and  _402
REMARK  164  A    between atoms: _404  and  _406
REMARK  165  A    between atoms: _406  and  _407
REMARK  166  A    between atoms: _406  and  _409
REMARK  167  A    between atoms: _409  and  _410
REMARK  168  A    between atoms: _416  and  _418
REMARK  169  A    between atoms: _418  and  _419
REMARK  170  A    between atoms: _418  and  _421
REMARK  171  A    between atoms: _421  and  _422
REMARK  172  A    between atoms: _425  and  _427
REMARK  173  A    between atoms: _427  and  _428
REMARK  174  A    between atoms: _427  and  _430
REMARK  175  A    between atoms: _433  and  _435
REMARK  176  A    between atoms: _435  and  _436
REMARK  177  A    between atoms: _435  and  _438
REMARK  178  A    between atoms: _438  and  _439
REMARK  179  A    between atoms: _443  and  _444
REMARK  180  A    between atoms: _449  and  _451
REMARK  181  A    between atoms: _451  and  _452
REMARK  182  A    between atoms: _451  and  _454
REMARK  183  A    between atoms: _454  and  _455
REMARK  184  A    between atoms: _459  and  _460
REMARK  185  A    between atoms: _465  and  _467
REMARK  186  A    between atoms: _467  and  _468
REMARK  187  A    between atoms: _467  and  _470
REMARK  188  A    between atoms: _473  and  _475
REMARK  189  A    between atoms: _475  and  _476
REMARK  190  A    between atoms: _475  and  _478
REMARK  191  A    between atoms: _478  and  _479
REMARK  192  A    between atoms: _484  and  _486
REMARK  193  A    between atoms: _486  and  _487
REMARK  194  A    between atoms: _486  and  _489
REMARK  195  A    between atoms: _489  and  _490
REMARK  196  A    between atoms: _493  and  _495
REMARK  197  A    between atoms: _495  and  _496
REMARK  198  A    between atoms: _495  and  _498
REMARK  199  A    between atoms: _498  and  _499
REMARK  200  A    between atoms: _502  and  _504
REMARK  201  A    between atoms: _504  and  _505
REMARK  202  A    between atoms: _507  and  _509
REMARK  203  A    between atoms: _509  and  _510
REMARK  204  A    between atoms: _509  and  _512
REMARK  205  A    between atoms: _512  and  _513
REMARK  206  A    between atoms: _513  and  _514
REMARK  207  A    between atoms: _514  and  _515
REMARK  208  A    between atoms: _524  and  _526
REMARK  209  A    between atoms: _526  and  _527
REMARK  210  A    between atoms: _526  and  _529
REMARK  211  A    between atoms: _529  and  _530
REMARK                            x       y       z     vdW  Elec       q    Type
REMARK                         _______ _______ _______ _____ _____    ______ ____
ROOT
ATOM      1  CA  LEU A   1       6.865  35.513  16.226  0.00  0.00    +0.133 C 
ENDROOT
BRANCH   1   2
ATOM      2  N   LEU A   1       6.691  34.749  17.458  0.00  0.00    -0.239 NA
ATOM      3  H   LEU A   1       7.416  34.056  17.731  0.00  0.00    +0.142 HD
ENDBRANCH   1   2
BRANCH   1   4
ATOM      4  C   LEU A   1       6.541  34.594  15.070  0.00  0.00    +0.224 C 
ATOM      5  O   LEU A   1       6.899  33.427  15.096  0.00  0.00    -0.287 OA
ENDBRANCH   1   4
BRANCH   1   6
ATOM      6  CB  LEU A   1       8.301  36.011  16.097  0.00  0.00    +0.025 C 
BRANCH   6   7
ATOM      7  CG  LEU A   1       8.830  36.801  17.290  0.00  0.00    +0.002 C 
ATOM      8  CD2 LEU A   1       7.954  37.998  17.575  0.00  0.00    +0.000 C 
ATOM      9  CD1 LEU A   1      10.256  37.240  16.995  0.00  0.00    +0.000 C 
ENDBRANCH   6   7
ENDBRANCH   1   6
TORSDOF 4
REMARK  Name = ../refined-set-2016/3el1/3el1_pocket.pdb
REMARK  211 active torsions:
REMARK  status: ('A' for Active; 'I' for Inactive)
REMARK    1  A    between atoms: _1  and  _3
REMARK    2  A    between atoms: _3  and  _4
REMARK    3  A    between atoms: _3  and  _6
REMARK    4  A    between atoms: _6  and  _7
REMARK    5  A    between atoms: _7  and  _8
REMARK    6  A    between atoms: _8  and  _9
REMARK    7  A    between atoms: _18  and  _20
REMARK    8  A    between atoms: _20  and  _21
REMARK    9  A    between atoms: _20  and  _23
REMARK   10  A    between atoms: _23  and  _24
REMARK   11  A    between atoms: _27  and  _29
REMARK   12  A    between atoms: _29  and  _30
REMARK   13  A    between atoms: _29  and  _32
REMARK   14  A    between atoms: _32  and  _33
REMARK   15  A    between atoms: _36  and  _38
REMARK   16  A    between atoms: _38  and  _39
REMARK   17  A    between atoms: _38  and  _41
REMARK   18  A    between atoms: _41  and  _42
REMARK   19  A    between atoms: _45  and  _47
REMARK   20  A    between atoms: _47  and  _48
REMARK   21  A    between atoms: _47  and  _50
REMARK   22  A    between atoms: _50  and  _51
REMARK   23  A    between atoms: _54  and  _56
REMARK   24  A    between atoms: _56  and  _57
REMARK   25  A    between atoms: _59  and  _61
REMARK   26  A    between atoms: _61  and  _62
REMARK   27  A    between atoms: _65  and  _67
REMARK   28  A    between atoms: _67  and  _68
REMARK   29  A    between atoms: _67  and  _70
REMARK   30  A    between atoms: _70  and  _71
REMARK   31  A    between atoms: _74  and  _76
REMARK   32  A    between atoms: _76  and  _77
REMARK   33  A    between atoms: _76  and  _79
REMARK   34  A    between atoms: _79  and  _80
REMARK   35  A    between atoms: _83  and  _85
REMARK   36  A    between atoms: _85  and  _86
REMARK   37  A    between atoms: _85  and  _88
REMARK   38  A    between atoms: _88  and  _89
REMARK   39  A    between atoms: _92  and  _94
REMARK   40  A    between atoms: _94  and  _95
REMARK   41  A    between atoms: _94  and  _97
REMARK   42  A    between atoms: _100  and  _102
REMARK   43  A    between atoms: _102  and  _103
REMARK   44  A    between atoms: _102  and  _105
REMARK   45  A    between atoms: _105  and  _106
REMARK   46  A    between atoms: _106  and  _107
REMARK   47  A    between atoms: _109  and  _111
REMARK   48  A    between atoms: _111  and  _112
REMARK   49  A    between atoms: _111  and  _114
REMARK   50  A    between atoms: _114  and  _115
REMARK   51  A    between atoms: _118  and  _120
REMARK   52  A    between atoms: _120  and  _121
REMARK   53  A    between atoms: _123  and  _125
REMARK   54  A    between atoms: _125  and  _126
REMARK   55  A    between atoms: _128  and  _130
REMARK   56  A    between atoms: _130  and  _131
REMARK   57  A    between atoms: _130  and  _133
REMARK   58  A    between atoms: _133  and  _134
REMARK   59  A    between atoms: _137  and  _139
REMARK   60  A    between atoms: _139  and  _140
REMARK   61  A    between atoms: _142  and  _144
REMARK   62  A    between atoms: _144  and  _145
REMARK   63  A    between atoms: _147  and  _149
REMARK   64  A    between atoms: _149  and  _150
REMARK   65  A    between atoms: _149  and  _152
REMARK   66  A    between atoms: _152  and  _153
REMARK   67  A    between atoms: _159  and  _161
REMARK   68  A    between atoms: _161  and  _162
REMARK   69  A    between atoms: _161  and  _164
REMARK   70  A    between atoms: _164  and  _165
REMARK   71  A    between atoms: _168  and  _170
REMARK   72  A    between atoms: _170  and  _171
REMARK   73  A    between atoms: _170  and  _173
REMARK   74  A    between atoms: _176  and  _178
REMARK   75  A    between atoms: _178  and  _179
REMARK   76  A    between atoms: _178  and  _181
REMARK   77  A    between atoms: _181  and  _182
REMARK   78  A    between atoms: _186  and  _187
REMARK   79  A    between atoms: _192  and  _194
REMARK   80  A    between atoms: _194  and  _195
REMARK   81  A    between atoms: _194  and  _197
REMARK   82  A    between atoms: _197  and  _198
REMARK   83  A    between atoms: _202  and  _203
REMARK   84  A    between atoms: _208  and  _210
REMARK   85  A    between atoms: _210  and  _211
REMARK   86  A    between atoms: _210  and  _213
REMARK   87  A    between atoms: _216  and  _218
REMARK   88  A    between atoms: _218  and  _219
REMARK   89  A    between atoms: _218  and  _221
REMARK   90  A    between atoms: _221  and  _222
REMARK   91  A    between atoms: _227  and  _229
REMARK   92  A    between atoms: _229  and  _230
REMARK   93  A    between atoms: _229  and  _232
REMARK   94  A    between atoms: _232  and  _233
REMARK   95  A    between atoms: _236  and  _238
REMARK   96  A    between atoms: _238  and  _239
REMARK   97  A    between atoms: _238  and  _241
REMARK   98  A    between atoms: _241  and  _242
REMARK   99  A    between atoms: _245  and  _247
REMARK  100  A    between atoms: _247  and  _248
REMARK  101  A    between atoms: _250  and  _252
REMARK  102  A    between atoms: _252  and  _253
REMARK  103  A    between atoms: _252  and  _255
REMARK  104  A    between atoms: _255  and  _256
REMARK  105  A    between atoms: _256  and  _257
REMARK  106  A    between atoms: _257  and  _258
REMARK  107  A    between atoms: _267  and  _269
REMARK  108  A    between atoms: _269  and  _270
REMARK  109  A    between atoms: _269  and  _272
REMARK  110  A    between atoms: _272  and  _273
REMARK  111  A    between atoms: _273  and  _274
REMARK  112  A    between atoms: _274  and  _275
REMARK  113  A    between atoms: _284  and  _286
REMARK  114  A    between atoms: _286  and  _287
REMARK  115  A    between atoms: _286  and  _289
REMARK  116  A    between atoms: _289  and  _290
REMARK  117  A    between atoms: _293  and  _295
REMARK  118  A    between atoms: _295  and  _296
REMARK  119  A    between atoms: _295  and  _298
REMARK  120  A    between atoms: _298  and  _299
REMARK  121  A    between atoms: _302  and  _304
REMARK  122  A    between atoms: _304  and  _305
REMARK  123  A    between atoms: _304  and  _307
REMARK  124  A    between atoms: _307  and  _308
REMARK  125  A    between atoms: _311  and  _313
REMARK  126  A    between atoms: _313  and  _314
REMARK  127  A    between atoms: _313  and  _316
REMARK  128  A    between atoms: _316  and  _317
REMARK  129  A    between atoms: _320  and  _322
REMARK  130  A    between atoms: _322  and  _323
REMARK  131  A    between atoms: _325  and  _327
REMARK  132  A    between atoms: _327  and  _328
REMARK  133  A    between atoms: _331  and  _333
REMARK  134  A    between atoms: _333  and  _334
REMARK  135  A    between atoms: _333  and  _336
REMARK  136  A    between atoms: _336  and  _337
REMARK  137  A    between atoms: _340  and  _342
REMARK  138  A    between atoms: _342  and  _343
REMARK  139  A    between atoms: _342  and  _345
REMARK  140  A    between atoms: _345  and  _346
REMARK  141  A    between atoms: _349  and  _351
REMARK  142  A    between atoms: _351  and  _352
REMARK  143  A    between atoms: _351  and  _354
REMARK  144  A    between atoms: _354  and  _355
REMARK  145  A    between atoms: _358  and  _360
REMARK  146  A    between atoms: _360  and  _361
REMARK  147  A    between atoms: _360  and  _363
REMARK  148  A    between atoms: _366  and  _368
REMARK  149  A    between atoms: _368  and  _369
REMARK  150  A    between atoms: _368  and  _371
REMARK  151  A    between atoms: _371  and  _372
REMARK  152  A    between atoms: _375  and  _377
REMARK  153  A    between atoms: _377  and  _378
REMARK  154  A    between atoms: _380  and  _382
REMARK  155  A    between atoms: _382  and  _383
REMARK  156  A    between atoms: _385  and  _387
REMARK  157  A    between atoms: _387  and  _388
REMARK  158  A    between atoms: _387  and  _390
REMARK  159  A    between atoms: _390  and  _391
REMARK  160  A    between atoms: _394  and  _396
REMARK  161  A    between atoms: _396  and  _397
REMARK  162  A    between atoms: _399  and  _401
REMARK  163  A    between atoms: _401  and  _402
REMARK  164  A    between atoms: _404  and  _406
REMARK  165  A    between atoms: _406  and  _407
REMARK  166  A    between atoms: _406  and  _409
REMARK  167  A    between atoms: _409  and  _410
REMARK  168  A    between atoms: _416  and  _418
REMARK  169  A    between atoms: _418  and  _419
REMARK  170  A    between atoms: _418  and  _421
REMARK  171  A    between atoms: _421  and  _422
REMARK  172  A    between atoms: _425  and  _427
REMARK  173  A    between atoms: _427  and  _428
REMARK  174  A    between atoms: _427  and  _430
REMARK  175  A    between atoms: _433  and  _435
REMARK  176  A    between atoms: _435  and  _436
REMARK  177  A    between atoms: _435  and  _438
REMARK  178  A    between atoms: _438  and  _439
REMARK  179  A    between atoms: _443  and  _444
REMARK  180  A    between atoms: _449  and  _451
REMARK  181  A    between atoms: _451  and  _452
REMARK  182  A    between atoms: _451  and  _454
REMARK  183  A    between atoms: _454  and  _455
REMARK  184  A    between atoms: _459  and  _460
REMARK  185  A    between atoms: _465  and  _467
REMARK  186  A    between atoms: _467  and  _468
REMARK  187  A    between atoms: _467  and  _470
REMARK  188  A    between atoms: _473  and  _475
REMARK  189  A    between atoms: _475  and  _476
REMARK  190  A    between atoms: _475  and  _478
REMARK  191  A    between atoms: _478  and  _479
REMARK  192  A    between atoms: _484  and  _486
REMARK  193  A    between atoms: _486  and  _487
REMARK  194  A    between atoms: _486  and  _489
REMARK  195  A    between atoms: _489  and  _490
REMARK  196  A    between atoms: _493  and  _495
REMARK  197  A    between atoms: _495  and  _496
REMARK  198  A    between atoms: _495  and  _498
REMARK  199  A    between atoms: _498  and  _499
REMARK  200  A    between atoms: _502  and  _504
REMARK  201  A    between atoms: _504  and  _505
REMARK  202  A    between atoms: _507  and  _509
REMARK  203  A    between atoms: _509  and  _510
REMARK  204  A    between atoms: _509  and  _512
REMARK  205  A    between atoms: _512  and  _513
REMARK  206  A    between atoms: _513  and  _514
REMARK  207  A    between atoms: _514  and  _515
REMARK  208  A    between atoms: _524  and  _526
REMARK  209  A    between atoms: _526  and  _527
REMARK  210  A    between atoms: _526  and  _529
REMARK  211  A    between atoms: _529  and  _530
REMARK                            x       y       z     vdW  Elec       q    Type
REMARK                         _______ _______ _______ _____ _____    ______ ____
ROOT
ATOM      1  C   ASN A   5      11.013  26.239  14.754  0.00  0.00    +0.241 C 
ATOM      2  N   ILE A   6      11.134  27.349  15.466  0.00  0.00    -0.297 N 
ATOM      3  H   ILE A   6      10.446  28.115  15.318  0.00  0.00    +0.150 HD
ATOM      4  O   ASN A   5      11.655  25.219  14.977  0.00  0.00    -0.273 OA
ENDROOT
BRANCH   2   5
ATOM      5  CA  ILE A   6      12.189  27.540  16.445  0.00  0.00    +0.149 C 
BRANCH   5   6
ATOM      6  C   ILE A   6      11.592  27.896  17.791  0.00  0.00    +0.241 C 
ATOM      7  N   ILE A   7      11.855  27.056  18.786  0.00  0.00    -0.297 N 
ATOM      8  H   ILE A   7      12.303  26.143  18.570  0.00  0.00    +0.150 HD
ATOM      9  O   ILE A   6      10.911  28.918  17.919  0.00  0.00    -0.273 OA
BRANCH   7  10
ATOM     10  CA  ILE A   7      11.536  27.375  20.168  0.00  0.00    +0.149 C 
BRANCH  10  11
ATOM     11  C   ILE A   7      12.760  28.007  20.812  0.00  0.00    +0.241 C 
ATOM     12  N   GLY A   8      12.623  29.269  21.198  0.00  0.00    -0.295 N 
ATOM     13  H   GLY A   8      11.698  29.729  21.081  0.00  0.00    +0.150 HD
ATOM     14  O   ILE A   7      13.809  27.361  20.948  0.00  0.00    -0.273 OA
BRANCH  12  15
ATOM     15  CA  GLY A   8      13.714  30.035  21.778  0.00  0.00    +0.176 C 
BRANCH  15  16
ATOM     16  C   GLY A   8      13.669  30.083  23.286  0.00  0.00    +0.243 C 
ATOM     17  O   GLY A   8      12.816  29.436  23.931  0.00  0.00    -0.273 OA
ATOM     18  N   ARG A   9      14.575  30.864  23.865  0.00  0.00    -0.298 N 
ATOM     19  H   ARG A   9      15.153  31.497  23.276  0.00  0.00    +0.150 HD
BRANCH  18  20
ATOM     20  CA  ARG A   9      14.776  30.852  25.316  0.00  0.00    +0.137 C 
BRANCH  20  21
ATOM     21  C   ARG A   9      13.576  31.370  26.081  0.00  0.00    +0.227 C 
ATOM     22  O   ARG A   9      13.363  30.982  27.229  0.00  0.00    -0.286 OA
ENDBRANCH  20  21
BRANCH  20  23
ATOM     23  CB  ARG A   9      16.026  31.641  25.715  0.00  0.00    +0.031 C 
BRANCH  23  24
ATOM     24  CG  ARG A   9      17.327  30.972  25.280  0.00  0.00    +0.045 C 
BRANCH  24  25
ATOM     25  CD  ARG A   9      18.554  31.722  25.814  0.00  0.00    +0.174 C 
BRANCH  25  26
ATOM     26  NE  ARG A   9      18.620  33.086  25.292  0.00  0.00    -0.265 N 
ATOM     27  CZ  ARG A   9      18.265  34.188  25.956  0.00  0.00    +0.342 C 
ATOM     28  NH2 ARG A   9      17.828  34.138  27.208  0.00  0.00    -0.292 N 
ATOM     29 HH21 ARG A   9      17.558  35.014  27.700  0.00  0.00    +0.255 HD
ATOM     30 HH22 ARG A   9      17.755  33.223  27.697  0.00  0.00    +0.255 HD
ATOM     31  NH1 ARG A   9      18.368  35.362  25.353  0.00  0.00    -0.292 N 
ATOM     32 HH11 ARG A   9      18.096  36.231  25.856  0.00  0.00    +0.255 HD
ATOM     33 HH12 ARG A   9      18.721  35.416  24.376  0.00  0.00    +0.255 HD
ATOM     34  HE  ARG A   9      18.973  33.208  24.321  0.00  0.00    +0.259 HD
ENDBRANCH  25  26
ENDBRANCH  24  25
ENDBRANCH  23  24
ENDBRANCH  20  23
ENDBRANCH  18  20
ENDBRANCH  15  16
ENDBRANCH  12  15
ENDBRANCH  10  11
BRANCH  10  35
ATOM     35  CB  ILE A   7      11.121  26.135  20.961  0.00  0.00    +0.027 C 
ATOM     36  CG2 ILE A   7      10.752  26.533  22.380  0.00  0.00    +0.002 C 
BRANCH  35  37
ATOM     37  CG1 ILE A   7       9.967  25.411  20.250  0.00  0.00    +0.002 C 
ATOM     38  CD1 ILE A   7       8.708  26.245  20.096  0.00  0.00    +0.000 C 
ENDBRANCH  35  37
ENDBRANCH  10  35
ENDBRANCH   7  10
ENDBRANCH   5   6
BRANCH   5  39
ATOM     39  CB  ILE A   6      13.136  28.661  16.001  0.00  0.00    +0.027 C 
ATOM     40  CG2 ILE A   6      14.137  28.991  17.095  0.00  0.00    +0.002 C 
BRANCH  39  41
ATOM     41  CG1 ILE A   6      13.885  28.238  14.735  0.00  0.00    +0.002 C 
ATOM     42  CD1 ILE A   6      14.491  29.388  13.978  0.00  0.00    +0.000 C 
ENDBRANCH  39  41
ENDBRANCH   5  39
ENDBRANCH   2   5
BRANCH   1  43
ATOM     43  CA  ASN A   5       9.969  26.265  13.650  0.00  0.00    +0.158 C 
BRANCH  43  45
ATOM     44  C   VAL A   4      11.420  26.462  11.710  0.00  0.00    +0.241 C 
ATOM     45  N   ASN A   5      10.558  25.740  12.424  0.00  0.00    -0.297 N 
ATOM     46  H   ASN A   5      10.301  24.785  12.101  0.00  0.00    +0.150 HD
ATOM     47  O   VAL A   4      11.677  27.640  11.961  0.00  0.00    -0.273 OA
BRANCH  44  48
ATOM     48  CA  VAL A   4      12.078  25.766  10.527  0.00  0.00    +0.149 C 
BRANCH  48  50
ATOM     49  C   PRO A   3      12.153  26.384   8.158  0.00  0.00    +0.241 C 
ATOM     50  N   VAL A   4      12.269  26.725   9.441  0.00  0.00    -0.297 N 
ATOM     51  H   VAL A   4      12.504  27.710   9.678  0.00  0.00    +0.150 HD
ATOM     52  O   PRO A   3      11.811  25.260   7.782  0.00  0.00    -0.273 OA
BRANCH  49  59
ATOM     53  C   THR A   2      11.314  29.431   8.006  0.00  0.00    +0.246 C 
ATOM     54  O   THR A   2      10.208  28.911   7.833  0.00  0.00    -0.273 OA
ATOM     55  N   PRO A   3      12.466  28.818   7.682  0.00  0.00    -0.272 N 
ATOM     56  CD  PRO A   3      13.828  29.371   7.799  0.00  0.00    +0.094 C 
ATOM     57  CG  PRO A   3      14.714  28.231   7.396  0.00  0.00    +0.024 C 
ATOM     58  CB  PRO A   3      13.895  27.302   6.594  0.00  0.00    +0.031 C 
ATOM     59  CA  PRO A   3      12.469  27.462   7.125  0.00  0.00    +0.152 C 
BRANCH  53  60
ATOM     60  CA  THR A   2      11.412  30.829   8.620  0.00  0.00    +0.176 C 
BRANCH  60  62
ATOM     61  C   PRO A   1      10.405  32.513   7.160  0.00  0.00    +0.239 C 
ATOM     62  N   THR A   2      10.289  31.628   8.142  0.00  0.00    -0.295 N 
ATOM     63  H   THR A   2       9.359  31.499   8.589  0.00  0.00    +0.150 HD
ATOM     64  O   PRO A   1      11.481  32.822   6.650  0.00  0.00    -0.274 OA
BRANCH  61  69
ATOM     65  N   PRO A   1       8.514  34.074   7.659  0.00  0.00    -0.210 NA
ATOM     66  CD  PRO A   1       8.734  35.483   7.278  0.00  0.00    +0.089 C 
ATOM     67  CG  PRO A   1       9.615  35.387   6.055  0.00  0.00    +0.021 C 
ATOM     68  CB  PRO A   1       9.344  34.056   5.470  0.00  0.00    +0.028 C 
ATOM     69  CA  PRO A   1       9.103  33.155   6.685  0.00  0.00    +0.149 C 
ENDBRANCH  61  69
ENDBRANCH  60  62
BRANCH  60  70
ATOM     70  CB  THR A   2      11.405  30.712  10.154  0.00  0.00    +0.137 C 
ATOM     71  CG2 THR A   2      10.048  30.197  10.659  0.00  0.00    +0.034 C 
BRANCH  70  72
ATOM     72  OG1 THR A   2      12.468  29.841  10.590  0.00  0.00    -0.382 OA
ATOM     73  HG1 THR A   2      12.340  28.942  10.195  0.00  0.00    +0.210 HD
ENDBRANCH  70  72
ENDBRANCH  60  70
ENDBRANCH  53  60
ENDBRANCH  49  59
ENDBRANCH  48  50
BRANCH  48  74
ATOM     74  CB  VAL A   4      13.431  25.153  10.958  0.00  0.00    +0.027 C 
ATOM     75  CG2 VAL A   4      13.249  24.157  12.099  0.00  0.00    +0.002 C 
ATOM     76  CG1 VAL A   4      14.420  26.248  11.351  0.00  0.00    +0.002 C 
ENDBRANCH  48  74
ENDBRANCH  44  48
ENDBRANCH  43  45
BRANCH  43  77
ATOM     77  CB  ASN A   5       8.766  25.439  14.091  0.00  0.00    +0.114 C 
BRANCH  77  78
ATOM     78  CG  ASN A   5       7.623  25.497  13.101  0.00  0.00    +0.222 C 
ATOM     79  ND2 ASN A   5       7.130  24.333  12.709  0.00  0.00    -0.329 N 
ATOM     80 HD21 ASN A   5       7.529  23.448  13.081  0.00  0.00    +0.145 HD
ATOM     81 HD22 ASN A   5       6.344  24.304  12.029  0.00  0.00    +0.145 HD
ATOM     82  OD1 ASN A   5       7.190  26.573  12.693  0.00  0.00    -0.275 OA
ENDBRANCH  77  78
ENDBRANCH  43  77
ENDBRANCH   1  43
TORSDOF 29
REMARK  Name = ../refined-set-2016/3el1/3el1_pocket.pdb
REMARK  211 active torsions:
REMARK  status: ('A' for Active; 'I' for Inactive)
REMARK    1  A    between atoms: _1  and  _3
REMARK    2  A    between atoms: _3  and  _4
REMARK    3  A    between atoms: _3  and  _6
REMARK    4  A    between atoms: _6  and  _7
REMARK    5  A    between atoms: _7  and  _8
REMARK    6  A    between atoms: _8  and  _9
REMARK    7  A    between atoms: _18  and  _20
REMARK    8  A    between atoms: _20  and  _21
REMARK    9  A    between atoms: _20  and  _23
REMARK   10  A    between atoms: _23  and  _24
REMARK   11  A    between atoms: _27  and  _29
REMARK   12  A    between atoms: _29  and  _30
REMARK   13  A    between atoms: _29  and  _32
REMARK   14  A    between atoms: _32  and  _33
REMARK   15  A    between atoms: _36  and  _38
REMARK   16  A    between atoms: _38  and  _39
REMARK   17  A    between atoms: _38  and  _41
REMARK   18  A    between atoms: _41  and  _42
REMARK   19  A    between atoms: _45  and  _47
REMARK   20  A    between atoms: _47  and  _48
REMARK   21  A    between atoms: _47  and  _50
REMARK   22  A    between atoms: _50  and  _51
REMARK   23  A    between atoms: _54  and  _56
REMARK   24  A    between atoms: _56  and  _57
REMARK   25  A    between atoms: _59  and  _61
REMARK   26  A    between atoms: _61  and  _62
REMARK   27  A    between atoms: _65  and  _67
REMARK   28  A    between atoms: _67  and  _68
REMARK   29  A    between atoms: _67  and  _70
REMARK   30  A    between atoms: _70  and  _71
REMARK   31  A    between atoms: _74  and  _76
REMARK   32  A    between atoms: _76  and  _77
REMARK   33  A    between atoms: _76  and  _79
REMARK   34  A    between atoms: _79  and  _80
REMARK   35  A    between atoms: _83  and  _85
REMARK   36  A    between atoms: _85  and  _86
REMARK   37  A    between atoms: _85  and  _88
REMARK   38  A    between atoms: _88  and  _89
REMARK   39  A    between atoms: _92  and  _94
REMARK   40  A    between atoms: _94  and  _95
REMARK   41  A    between atoms: _94  and  _97
REMARK   42  A    between atoms: _100  and  _102
REMARK   43  A    between atoms: _102  and  _103
REMARK   44  A    between atoms: _102  and  _105
REMARK   45  A    between atoms: _105  and  _106
REMARK   46  A    between atoms: _106  and  _107
REMARK   47  A    between atoms: _109  and  _111
REMARK   48  A    between atoms: _111  and  _112
REMARK   49  A    between atoms: _111  and  _114
REMARK   50  A    between atoms: _114  and  _115
REMARK   51  A    between atoms: _118  and  _120
REMARK   52  A    between atoms: _120  and  _121
REMARK   53  A    between atoms: _123  and  _125
REMARK   54  A    between atoms: _125  and  _126
REMARK   55  A    between atoms: _128  and  _130
REMARK   56  A    between atoms: _130  and  _131
REMARK   57  A    between atoms: _130  and  _133
REMARK   58  A    between atoms: _133  and  _134
REMARK   59  A    between atoms: _137  and  _139
REMARK   60  A    between atoms: _139  and  _140
REMARK   61  A    between atoms: _142  and  _144
REMARK   62  A    between atoms: _144  and  _145
REMARK   63  A    between atoms: _147  and  _149
REMARK   64  A    between atoms: _149  and  _150
REMARK   65  A    between atoms: _149  and  _152
REMARK   66  A    between atoms: _152  and  _153
REMARK   67  A    between atoms: _159  and  _161
REMARK   68  A    between atoms: _161  and  _162
REMARK   69  A    between atoms: _161  and  _164
REMARK   70  A    between atoms: _164  and  _165
REMARK   71  A    between atoms: _168  and  _170
REMARK   72  A    between atoms: _170  and  _171
REMARK   73  A    between atoms: _170  and  _173
REMARK   74  A    between atoms: _176  and  _178
REMARK   75  A    between atoms: _178  and  _179
REMARK   76  A    between atoms: _178  and  _181
REMARK   77  A    between atoms: _181  and  _182
REMARK   78  A    between atoms: _186  and  _187
REMARK   79  A    between atoms: _192  and  _194
REMARK   80  A    between atoms: _194  and  _195
REMARK   81  A    between atoms: _194  and  _197
REMARK   82  A    between atoms: _197  and  _198
REMARK   83  A    between atoms: _202  and  _203
REMARK   84  A    between atoms: _208  and  _210
REMARK   85  A    between atoms: _210  and  _211
REMARK   86  A    between atoms: _210  and  _213
REMARK   87  A    between atoms: _216  and  _218
REMARK   88  A    between atoms: _218  and  _219
REMARK   89  A    between atoms: _218  and  _221
REMARK   90  A    between atoms: _221  and  _222
REMARK   91  A    between atoms: _227  and  _229
REMARK   92  A    between atoms: _229  and  _230
REMARK   93  A    between atoms: _229  and  _232
REMARK   94  A    between atoms: _232  and  _233
REMARK   95  A    between atoms: _236  and  _238
REMARK   96  A    between atoms: _238  and  _239
REMARK   97  A    between atoms: _238  and  _241
REMARK   98  A    between atoms: _241  and  _242
REMARK   99  A    between atoms: _245  and  _247
REMARK  100  A    between atoms: _247  and  _248
REMARK  101  A    between atoms: _250  and  _252
REMARK  102  A    between atoms: _252  and  _253
REMARK  103  A    between atoms: _252  and  _255
REMARK  104  A    between atoms: _255  and  _256
REMARK  105  A    between atoms: _256  and  _257
REMARK  106  A    between atoms: _257  and  _258
REMARK  107  A    between atoms: _267  and  _269
REMARK  108  A    between atoms: _269  and  _270
REMARK  109  A    between atoms: _269  and  _272
REMARK  110  A    between atoms: _272  and  _273
REMARK  111  A    between atoms: _273  and  _274
REMARK  112  A    between atoms: _274  and  _275
REMARK  113  A    between atoms: _284  and  _286
REMARK  114  A    between atoms: _286  and  _287
REMARK  115  A    between atoms: _286  and  _289
REMARK  116  A    between atoms: _289  and  _290
REMARK  117  A    between atoms: _293  and  _295
REMARK  118  A    between atoms: _295  and  _296
REMARK  119  A    between atoms: _295  and  _298
REMARK  120  A    between atoms: _298  and  _299
REMARK  121  A    between atoms: _302  and  _304
REMARK  122  A    between atoms: _304  and  _305
REMARK  123  A    between atoms: _304  and  _307
REMARK  124  A    between atoms: _307  and  _308
REMARK  125  A    between atoms: _311  and  _313
REMARK  126  A    between atoms: _313  and  _314
REMARK  127  A    between atoms: _313  and  _316
REMARK  128  A    between atoms: _316  and  _317
REMARK  129  A    between atoms: _320  and  _322
REMARK  130  A    between atoms: _322  and  _323
REMARK  131  A    between atoms: _325  and  _327
REMARK  132  A    between atoms: _327  and  _328
REMARK  133  A    between atoms: _331  and  _333
REMARK  134  A    between atoms: _333  and  _334
REMARK  135  A    between atoms: _333  and  _336
REMARK  136  A    between atoms: _336  and  _337
REMARK  137  A    between atoms: _340  and  _342
REMARK  138  A    between atoms: _342  and  _343
REMARK  139  A    between atoms: _342  and  _345
REMARK  140  A    between atoms: _345  and  _346
REMARK  141  A    between atoms: _349  and  _351
REMARK  142  A    between atoms: _351  and  _352
REMARK  143  A    between atoms: _351  and  _354
REMARK  144  A    between atoms: _354  and  _355
REMARK  145  A    between atoms: _358  and  _360
REMARK  146  A    between atoms: _360  and  _361
REMARK  147  A    between atoms: _360  and  _363
REMARK  148  A    between atoms: _366  and  _368
REMARK  149  A    between atoms: _368  and  _369
REMARK  150  A    between atoms: _368  and  _371
REMARK  151  A    between atoms: _371  and  _372
REMARK  152  A    between atoms: _375  and  _377
REMARK  153  A    between atoms: _377  and  _378
REMARK  154  A    between atoms: _380  and  _382
REMARK  155  A    between atoms: _382  and  _383
REMARK  156  A    between atoms: _385  and  _387
REMARK  157  A    between atoms: _387  and  _388
REMARK  158  A    between atoms: _387  and  _390
REMARK  159  A    between atoms: _390  and  _391
REMARK  160  A    between atoms: _394  and  _396
REMARK  161  A    between atoms: _396  and  _397
REMARK  162  A    between atoms: _399  and  _401
REMARK  163  A    between atoms: _401  and  _402
REMARK  164  A    between atoms: _404  and  _406
REMARK  165  A    between atoms: _406  and  _407
REMARK  166  A    between atoms: _406  and  _409
REMARK  167  A    between atoms: _409  and  _410
REMARK  168  A    between atoms: _416  and  _418
REMARK  169  A    between atoms: _418  and  _419
REMARK  170  A    between atoms: _418  and  _421
REMARK  171  A    between atoms: _421  and  _422
REMARK  172  A    between atoms: _425  and  _427
REMARK  173  A    between atoms: _427  and  _428
REMARK  174  A    between atoms: _427  and  _430
REMARK  175  A    between atoms: _433  and  _435
REMARK  176  A    between atoms: _435  and  _436
REMARK  177  A    between atoms: _435  and  _438
REMARK  178  A    between atoms: _438  and  _439
REMARK  179  A    between atoms: _443  and  _444
REMARK  180  A    between atoms: _449  and  _451
REMARK  181  A    between atoms: _451  and  _452
REMARK  182  A    between atoms: _451  and  _454
REMARK  183  A    between atoms: _454  and  _455
REMARK  184  A    between atoms: _459  and  _460
REMARK  185  A    between atoms: _465  and  _467
REMARK  186  A    between atoms: _467  and  _468
REMARK  187  A    between atoms: _467  and  _470
REMARK  188  A    between atoms: _473  and  _475
REMARK  189  A    between atoms: _475  and  _476
REMARK  190  A    between atoms: _475  and  _478
REMARK  191  A    between atoms: _478  and  _479
REMARK  192  A    between atoms: _484  and  _486
REMARK  193  A    between atoms: _486  and  _487
REMARK  194  A    between atoms: _486  and  _489
REMARK  195  A    between atoms: _489  and  _490
REMARK  196  A    between atoms: _493  and  _495
REMARK  197  A    between atoms: _495  and  _496
REMARK  198  A    between atoms: _495  and  _498
REMARK  199  A    between atoms: _498  and  _499
REMARK  200  A    between atoms: _502  and  _504
REMARK  201  A    between atoms: _504  and  _505
REMARK  202  A    between atoms: _507  and  _509
REMARK  203  A    between atoms: _509  and  _510
REMARK  204  A    between atoms: _509  and  _512
REMARK  205  A    between atoms: _512  and  _513
REMARK  206  A    between atoms: _513  and  _514
REMARK  207  A    between atoms: _514  and  _515
REMARK  208  A    between atoms: _524  and  _526
REMARK  209  A    between atoms: _526  and  _527
REMARK  210  A    between atoms: _526  and  _529
REMARK  211  A    between atoms: _529  and  _530
REMARK                            x       y       z     vdW  Elec       q    Type
REMARK                         _______ _______ _______ _____ _____    ______ ____
ROOT
ATOM      1  NE  ARG A   1      21.487  37.420  23.289  0.00  0.00    -0.265 N 
ATOM      2  HE  ARG A   1      20.908  37.872  24.025  0.00  0.00    +0.259 HD
ATOM      3  CZ  ARG A   1      21.458  37.957  22.073  0.00  0.00    +0.342 C 
ATOM      4  NH2 ARG A   1      20.716  39.037  21.852  0.00  0.00    -0.292 N 
ATOM      5 HH21 ARG A   1      20.164  39.456  22.627  0.00  0.00    +0.255 HD
ATOM      6 HH22 ARG A   1      20.688  39.463  20.904  0.00  0.00    +0.255 HD
ATOM      7  NH1 ARG A   1      22.157  37.421  21.070  0.00  0.00    -0.292 N 
ATOM      8 HH11 ARG A   1      22.734  36.572  21.234  0.00  0.00    +0.255 HD
ATOM      9 HH12 ARG A   1      22.124  37.853  20.124  0.00  0.00    +0.255 HD
ENDROOT
BRANCH   1  10
ATOM     10  CD  ARG A   1      22.268  36.245  23.675  0.00  0.00    +0.174 C 
BRANCH  10  11
ATOM     11  CG  ARG A   1      21.737  35.643  24.944  0.00  0.00    +0.045 C 
BRANCH  11  12
ATOM     12  CB  ARG A   1      22.767  34.774  25.641  0.00  0.00    +0.029 C 
BRANCH  12  13
ATOM     13  CA  ARG A   1      22.167  33.834  26.680  0.00  0.00    +0.133 C 
BRANCH  13  14
ATOM     14  N   ARG A   1      21.530  34.573  27.766  0.00  0.00    -0.239 NA
ATOM     15  H   ARG A   1      21.527  35.613  27.751  0.00  0.00    +0.142 HD
ENDBRANCH  13  14
BRANCH  13  16
ATOM     16  C   ARG A   1      23.268  32.938  27.242  0.00  0.00    +0.224 C 
ATOM     17  O   ARG A   1      24.053  33.384  28.089  0.00  0.00    -0.287 OA
ENDBRANCH  13  16
ENDBRANCH  12  13
ENDBRANCH  11  12
ENDBRANCH  10  11
ENDBRANCH   1  10
TORSDOF 6
REMARK  Name = ../refined-set-2016/3el1/3el1_pocket.pdb
REMARK  211 active torsions:
REMARK  status: ('A' for Active; 'I' for Inactive)
REMARK    1  A    between atoms: _1  and  _3
REMARK    2  A    between atoms: _3  and  _4
REMARK    3  A    between atoms: _3  and  _6
REMARK    4  A    between atoms: _6  and  _7
REMARK    5  A    between atoms: _7  and  _8
REMARK    6  A    between atoms: _8  and  _9
REMARK    7  A    between atoms: _18  and  _20
REMARK    8  A    between atoms: _20  and  _21
REMARK    9  A    between atoms: _20  and  _23
REMARK   10  A    between atoms: _23  and  _24
REMARK   11  A    between atoms: _27  and  _29
REMARK   12  A    between atoms: _29  and  _30
REMARK   13  A    between atoms: _29  and  _32
REMARK   14  A    between atoms: _32  and  _33
REMARK   15  A    between atoms: _36  and  _38
REMARK   16  A    between atoms: _38  and  _39
REMARK   17  A    between atoms: _38  and  _41
REMARK   18  A    between atoms: _41  and  _42
REMARK   19  A    between atoms: _45  and  _47
REMARK   20  A    between atoms: _47  and  _48
REMARK   21  A    between atoms: _47  and  _50
REMARK   22  A    between atoms: _50  and  _51
REMARK   23  A    between atoms: _54  and  _56
REMARK   24  A    between atoms: _56  and  _57
REMARK   25  A    between atoms: _59  and  _61
REMARK   26  A    between atoms: _61  and  _62
REMARK   27  A    between atoms: _65  and  _67
REMARK   28  A    between atoms: _67  and  _68
REMARK   29  A    between atoms: _67  and  _70
REMARK   30  A    between atoms: _70  and  _71
REMARK   31  A    between atoms: _74  and  _76
REMARK   32  A    between atoms: _76  and  _77
REMARK   33  A    between atoms: _76  and  _79
REMARK   34  A    between atoms: _79  and  _80
REMARK   35  A    between atoms: _83  and  _85
REMARK   36  A    between atoms: _85  and  _86
REMARK   37  A    between atoms: _85  and  _88
REMARK   38  A    between atoms: _88  and  _89
REMARK   39  A    between atoms: _92  and  _94
REMARK   40  A    between atoms: _94  and  _95
REMARK   41  A    between atoms: _94  and  _97
REMARK   42  A    between atoms: _100  and  _102
REMARK   43  A    between atoms: _102  and  _103
REMARK   44  A    between atoms: _102  and  _105
REMARK   45  A    between atoms: _105  and  _106
REMARK   46  A    between atoms: _106  and  _107
REMARK   47  A    between atoms: _109  and  _111
REMARK   48  A    between atoms: _111  and  _112
REMARK   49  A    between atoms: _111  and  _114
REMARK   50  A    between atoms: _114  and  _115
REMARK   51  A    between atoms: _118  and  _120
REMARK   52  A    between atoms: _120  and  _121
REMARK   53  A    between atoms: _123  and  _125
REMARK   54  A    between atoms: _125  and  _126
REMARK   55  A    between atoms: _128  and  _130
REMARK   56  A    between atoms: _130  and  _131
REMARK   57  A    between atoms: _130  and  _133
REMARK   58  A    between atoms: _133  and  _134
REMARK   59  A    between atoms: _137  and  _139
REMARK   60  A    between atoms: _139  and  _140
REMARK   61  A    between atoms: _142  and  _144
REMARK   62  A    between atoms: _144  and  _145
REMARK   63  A    between atoms: _147  and  _149
REMARK   64  A    between atoms: _149  and  _150
REMARK   65  A    between atoms: _149  and  _152
REMARK   66  A    between atoms: _152  and  _153
REMARK   67  A    between atoms: _159  and  _161
REMARK   68  A    between atoms: _161  and  _162
REMARK   69  A    between atoms: _161  and  _164
REMARK   70  A    between atoms: _164  and  _165
REMARK   71  A    between atoms: _168  and  _170
REMARK   72  A    between atoms: _170  and  _171
REMARK   73  A    between atoms: _170  and  _173
REMARK   74  A    between atoms: _176  and  _178
REMARK   75  A    between atoms: _178  and  _179
REMARK   76  A    between atoms: _178  and  _181
REMARK   77  A    between atoms: _181  and  _182
REMARK   78  A    between atoms: _186  and  _187
REMARK   79  A    between atoms: _192  and  _194
REMARK   80  A    between atoms: _194  and  _195
REMARK   81  A    between atoms: _194  and  _197
REMARK   82  A    between atoms: _197  and  _198
REMARK   83  A    between atoms: _202  and  _203
REMARK   84  A    between atoms: _208  and  _210
REMARK   85  A    between atoms: _210  and  _211
REMARK   86  A    between atoms: _210  and  _213
REMARK   87  A    between atoms: _216  and  _218
REMARK   88  A    between atoms: _218  and  _219
REMARK   89  A    between atoms: _218  and  _221
REMARK   90  A    between atoms: _221  and  _222
REMARK   91  A    between atoms: _227  and  _229
REMARK   92  A    between atoms: _229  and  _230
REMARK   93  A    between atoms: _229  and  _232
REMARK   94  A    between atoms: _232  and  _233
REMARK   95  A    between atoms: _236  and  _238
REMARK   96  A    between atoms: _238  and  _239
REMARK   97  A    between atoms: _238  and  _241
REMARK   98  A    between atoms: _241  and  _242
REMARK   99  A    between atoms: _245  and  _247
REMARK  100  A    between atoms: _247  and  _248
REMARK  101  A    between atoms: _250  and  _252
REMARK  102  A    between atoms: _252  and  _253
REMARK  103  A    between atoms: _252  and  _255
REMARK  104  A    between atoms: _255  and  _256
REMARK  105  A    between atoms: _256  and  _257
REMARK  106  A    between atoms: _257  and  _258
REMARK  107  A    between atoms: _267  and  _269
REMARK  108  A    between atoms: _269  and  _270
REMARK  109  A    between atoms: _269  and  _272
REMARK  110  A    between atoms: _272  and  _273
REMARK  111  A    between atoms: _273  and  _274
REMARK  112  A    between atoms: _274  and  _275
REMARK  113  A    between atoms: _284  and  _286
REMARK  114  A    between atoms: _286  and  _287
REMARK  115  A    between atoms: _286  and  _289
REMARK  116  A    between atoms: _289  and  _290
REMARK  117  A    between atoms: _293  and  _295
REMARK  118  A    between atoms: _295  and  _296
REMARK  119  A    between atoms: _295  and  _298
REMARK  120  A    between atoms: _298  and  _299
REMARK  121  A    between atoms: _302  and  _304
REMARK  122  A    between atoms: _304  and  _305
REMARK  123  A    between atoms: _304  and  _307
REMARK  124  A    between atoms: _307  and  _308
REMARK  125  A    between atoms: _311  and  _313
REMARK  126  A    between atoms: _313  and  _314
REMARK  127  A    between atoms: _313  and  _316
REMARK  128  A    between atoms: _316  and  _317
REMARK  129  A    between atoms: _320  and  _322
REMARK  130  A    between atoms: _322  and  _323
REMARK  131  A    between atoms: _325  and  _327
REMARK  132  A    between atoms: _327  and  _328
REMARK  133  A    between atoms: _331  and  _333
REMARK  134  A    between atoms: _333  and  _334
REMARK  135  A    between atoms: _333  and  _336
REMARK  136  A    between atoms: _336  and  _337
REMARK  137  A    between atoms: _340  and  _342
REMARK  138  A    between atoms: _342  and  _343
REMARK  139  A    between atoms: _342  and  _345
REMARK  140  A    between atoms: _345  and  _346
REMARK  141  A    between atoms: _349  and  _351
REMARK  142  A    between atoms: _351  and  _352
REMARK  143  A    between atoms: _351  and  _354
REMARK  144  A    between atoms: _354  and  _355
REMARK  145  A    between atoms: _358  and  _360
REMARK  146  A    between atoms: _360  and  _361
REMARK  147  A    between atoms: _360  and  _363
REMARK  148  A    between atoms: _366  and  _368
REMARK  149  A    between atoms: _368  and  _369
REMARK  150  A    between atoms: _368  and  _371
REMARK  151  A    between atoms: _371  and  _372
REMARK  152  A    between atoms: _375  and  _377
REMARK  153  A    between atoms: _377  and  _378
REMARK  154  A    between atoms: _380  and  _382
REMARK  155  A    between atoms: _382  and  _383
REMARK  156  A    between atoms: _385  and  _387
REMARK  157  A    between atoms: _387  and  _388
REMARK  158  A    between atoms: _387  and  _390
REMARK  159  A    between atoms: _390  and  _391
REMARK  160  A    between atoms: _394  and  _396
REMARK  161  A    between atoms: _396  and  _397
REMARK  162  A    between atoms: _399  and  _401
REMARK  163  A    between atoms: _401  and  _402
REMARK  164  A    between atoms: _404  and  _406
REMARK  165  A    between atoms: _406  and  _407
REMARK  166  A    between atoms: _406  and  _409
REMARK  167  A    between atoms: _409  and  _410
REMARK  168  A    between atoms: _416  and  _418
REMARK  169  A    between atoms: _418  and  _419
REMARK  170  A    between atoms: _418  and  _421
REMARK  171  A    between atoms: _421  and  _422
REMARK  172  A    between atoms: _425  and  _427
REMARK  173  A    between atoms: _427  and  _428
REMARK  174  A    between atoms: _427  and  _430
REMARK  175  A    between atoms: _433  and  _435
REMARK  176  A    between atoms: _435  and  _436
REMARK  177  A    between atoms: _435  and  _438
REMARK  178  A    between atoms: _438  and  _439
REMARK  179  A    between atoms: _443  and  _444
REMARK  180  A    between atoms: _449  and  _451
REMARK  181  A    between atoms: _451  and  _452
REMARK  182  A    between atoms: _451  and  _454
REMARK  183  A    between atoms: _454  and  _455
REMARK  184  A    between atoms: _459  and  _460
REMARK  185  A    between atoms: _465  and  _467
REMARK  186  A    between atoms: _467  and  _468
REMARK  187  A    between atoms: _467  and  _470
REMARK  188  A    between atoms: _473  and  _475
REMARK  189  A    between atoms: _475  and  _476
REMARK  190  A    between atoms: _475  and  _478
REMARK  191  A    between atoms: _478  and  _479
REMARK  192  A    between atoms: _484  and  _486
REMARK  193  A    between atoms: _486  and  _487
REMARK  194  A    between atoms: _486  and  _489
REMARK  195  A    between atoms: _489  and  _490
REMARK  196  A    between atoms: _493  and  _495
REMARK  197  A    between atoms: _495  and  _496
REMARK  198  A    between atoms: _495  and  _498
REMARK  199  A    between atoms: _498  and  _499
REMARK  200  A    between atoms: _502  and  _504
REMARK  201  A    between atoms: _504  and  _505
REMARK  202  A    between atoms: _507  and  _509
REMARK  203  A    between atoms: _509  and  _510
REMARK  204  A    between atoms: _509  and  _512
REMARK  205  A    between atoms: _512  and  _513
REMARK  206  A    between atoms: _513  and  _514
REMARK  207  A    between atoms: _514  and  _515
REMARK  208  A    between atoms: _524  and  _526
REMARK  209  A    between atoms: _526  and  _527
REMARK  210  A    between atoms: _526  and  _529
REMARK  211  A    between atoms: _529  and  _530
REMARK                            x       y       z     vdW  Elec       q    Type
REMARK                         _______ _______ _______ _____ _____    ______ ____
ROOT
ATOM      1  C   GLY A   5      20.905  25.378  15.707  0.00  0.00    +0.243 C 
ATOM      2  N   ALA A   6      22.202  25.243  15.976  0.00  0.00    -0.297 N 
ATOM      3  H   ALA A   6      22.489  25.050  16.957  0.00  0.00    +0.150 HD
ATOM      4  O   GLY A   5      20.478  25.662  14.596  0.00  0.00    -0.273 OA
ENDROOT
BRANCH   2   5
ATOM      5  CA  ALA A   6      23.236  25.354  14.958  0.00  0.00    +0.149 C 
ATOM      6  CB  ALA A   6      24.315  26.315  15.426  0.00  0.00    +0.031 C 
BRANCH   5   7
ATOM      7  C   ALA A   6      23.852  24.001  14.627  0.00  0.00    +0.241 C 
ATOM      8  O   ALA A   6      24.397  23.334  15.504  0.00  0.00    -0.273 OA
ATOM      9  N   ASP A   7      23.801  23.606  13.355  0.00  0.00    -0.297 N 
ATOM     10  H   ASP A   7      23.278  24.179  12.662  0.00  0.00    +0.150 HD
BRANCH   9  11
ATOM     11  CA  ASP A   7      24.471  22.375  12.916  0.00  0.00    +0.160 C 
BRANCH  11  12
ATOM     12  C   ASP A   7      25.972  22.526  13.030  0.00  0.00    +0.241 C 
ATOM     13  O   ASP A   7      26.675  21.562  13.337  0.00  0.00    -0.273 OA
ATOM     14  N   ASP A   8      26.441  23.735  12.740  0.00  0.00    -0.297 N 
ATOM     15  H   ASP A   8      25.753  24.506  12.619  0.00  0.00    +0.150 HD
BRANCH  14  16
ATOM     16  CA  ASP A   8      27.857  24.054  12.580  0.00  0.00    +0.160 C 
BRANCH  16  17
ATOM     17  C   ASP A   8      28.307  25.115  13.572  0.00  0.00    +0.241 C 
ATOM     18  O   ASP A   8      27.496  25.846  14.152  0.00  0.00    -0.273 OA
ATOM     19  N   THR A   9      29.618  25.193  13.754  0.00  0.00    -0.295 N 
ATOM     20  H   THR A   9      30.227  24.503  13.270  0.00  0.00    +0.150 HD
BRANCH  19  21
ATOM     21  CA  THR A   9      30.240  26.192  14.594  0.00  0.00    +0.176 C 
BRANCH  21  22
ATOM     22  C   THR A   9      30.719  27.351  13.714  0.00  0.00    +0.243 C 
ATOM     23  N   VAL A  10      30.313  28.570  14.060  0.00  0.00    -0.298 N 
ATOM     24  H   VAL A  10      29.782  28.688  14.946  0.00  0.00    +0.150 HD
ATOM     25  O   THR A   9      31.423  27.139  12.735  0.00  0.00    -0.273 OA
BRANCH  23  26
ATOM     26  CA  VAL A  10      30.586  29.746  13.242  0.00  0.00    +0.137 C 
BRANCH  26  27
ATOM     27  CB  VAL A  10      29.309  30.301  12.564  0.00  0.00    +0.026 C 
ATOM     28  CG2 VAL A  10      28.506  29.187  11.902  0.00  0.00    +0.002 C 
ATOM     29  CG1 VAL A  10      29.706  31.370  11.554  0.00  0.00    +0.002 C 
ENDBRANCH  26  27
BRANCH  26  30
ATOM     30  C   VAL A  10      31.169  30.852  14.111  0.00  0.00    +0.227 C 
ATOM     31  O   VAL A  10      30.502  31.341  15.019  0.00  0.00    -0.286 OA
ENDBRANCH  26  30
ENDBRANCH  23  26
ENDBRANCH  21  22
BRANCH  21  32
ATOM     32  CB  THR A   9      31.404  25.539  15.368  0.00  0.00    +0.137 C 
ATOM     33  CG2 THR A   9      32.285  26.571  16.077  0.00  0.00    +0.034 C 
BRANCH  32  34
ATOM     34  OG1 THR A   9      30.846  24.619  16.317  0.00  0.00    -0.382 OA
ATOM     35  HG1 THR A   9      30.324  23.928  15.837  0.00  0.00    +0.210 HD
ENDBRANCH  32  34
ENDBRANCH  21  32
ENDBRANCH  19  21
ENDBRANCH  16  17
BRANCH  16  36
ATOM     36  CB  ASP A   8      28.112  24.573  11.164  0.00  0.00    +0.143 C 
BRANCH  36  37
ATOM     37  CG  ASP A   8      27.697  23.583  10.101  0.00  0.00    +0.367 C 
ATOM     38  OD2 ASP A   8      28.063  22.399  10.219  0.00  0.00    -0.246 OA
ATOM     39  OD1 ASP A   8      27.005  23.991   9.154  0.00  0.00    -0.246 OA
ENDBRANCH  36  37
ENDBRANCH  16  36
ENDBRANCH  14  16
ENDBRANCH  11  12
BRANCH  11  40
ATOM     40  CB  ASP A   7      24.176  22.061  11.445  0.00  0.00    +0.143 C 
BRANCH  40  41
ATOM     41  CG  ASP A   7      22.782  21.539  11.212  0.00  0.00    +0.367 C 
ATOM     42  OD2 ASP A   7      21.974  21.475  12.163  0.00  0.00    -0.246 OA
ATOM     43  OD1 ASP A   7      22.491  21.207  10.048  0.00  0.00    -0.246 OA
ENDBRANCH  40  41
ENDBRANCH  11  40
ENDBRANCH   9  11
ENDBRANCH   5   7
ENDBRANCH   2   5
BRANCH   1  44
ATOM     44  CA  GLY A   5      19.933  25.187  16.859  0.00  0.00    +0.176 C 
BRANCH  44  46
ATOM     45  C   THR A   4      20.913  23.806  18.618  0.00  0.00    +0.243 C 
ATOM     46  N   GLY A   5      20.556  25.007  18.177  0.00  0.00    -0.295 N 
ATOM     47  H   GLY A   5      20.721  25.839  18.779  0.00  0.00    +0.150 HD
ATOM     48  O   THR A   4      20.669  22.768  17.977  0.00  0.00    -0.273 OA
BRANCH  45  49
ATOM     49  CA  THR A   4      21.638  23.742  19.978  0.00  0.00    +0.176 C 
BRANCH  49  51
ATOM     50  C   ASP A   3      23.232  25.560  19.754  0.00  0.00    +0.241 C 
ATOM     51  N   THR A   4      22.215  25.018  20.409  0.00  0.00    -0.295 N 
ATOM     52  H   THR A   4      21.822  25.505  21.240  0.00  0.00    +0.150 HD
ATOM     53  O   ASP A   3      23.767  25.016  18.813  0.00  0.00    -0.273 OA
BRANCH  50  54
ATOM     54  CA  ASP A   3      23.718  26.908  20.247  0.00  0.00    +0.160 C 
BRANCH  54  57
ATOM     55  C   LEU A   2      24.870  27.324  22.352  0.00  0.00    +0.241 C 
ATOM     56  O   LEU A   2      23.848  27.750  22.886  0.00  0.00    -0.273 OA
ATOM     57  N   ASP A   3      24.870  26.786  21.136  0.00  0.00    -0.297 N 
ATOM     58  H   ASP A   3      25.710  26.266  20.811  0.00  0.00    +0.150 HD
BRANCH  55  59
ATOM     59  CA  LEU A   2      26.219  27.442  23.055  0.00  0.00    +0.149 C 
BRANCH  59  61
ATOM     60  C   LEU A   1      26.977  29.601  22.188  0.00  0.00    +0.238 C 
ATOM     61  N   LEU A   2      26.520  28.866  23.201  0.00  0.00    -0.297 N 
ATOM     62  H   LEU A   2      26.373  29.319  24.125  0.00  0.00    +0.150 HD
ATOM     63  O   LEU A   1      27.272  29.122  21.100  0.00  0.00    -0.274 OA
BRANCH  60  64
ATOM     64  CA  LEU A   1      27.108  31.104  22.420  0.00  0.00    +0.145 C 
BRANCH  64  65
ATOM     65  N   LEU A   1      28.456  31.526  22.100  0.00  0.00    -0.238 NA
ATOM     66  H   LEU A   1      28.669  31.784  21.115  0.00  0.00    +0.142 HD
ENDBRANCH  64  65
BRANCH  64  67
ATOM     67  CB  LEU A   1      26.160  31.860  21.496  0.00  0.00    +0.026 C 
BRANCH  67  68
ATOM     68  CG  LEU A   1      24.650  31.690  21.625  0.00  0.00    +0.002 C 
ATOM     69  CD2 LEU A   1      24.196  32.306  22.913  0.00  0.00    +0.000 C 
ATOM     70  CD1 LEU A   1      23.948  32.336  20.414  0.00  0.00    +0.000 C 
ENDBRANCH  67  68
ENDBRANCH  64  67
ENDBRANCH  60  64
ENDBRANCH  59  61
BRANCH  59  71
ATOM     71  CB  LEU A   2      26.206  26.742  24.421  0.00  0.00    +0.029 C 
BRANCH  71  72
ATOM     72  CG  LEU A   2      27.490  26.828  25.255  0.00  0.00    +0.002 C 
ATOM     73  CD2 LEU A   2      27.300  26.105  26.584  0.00  0.00    +0.000 C 
ATOM     74  CD1 LEU A   2      28.660  26.271  24.468  0.00  0.00    +0.000 C 
ENDBRANCH  71  72
ENDBRANCH  59  71
ENDBRANCH  55  59
ENDBRANCH  54  57
BRANCH  54  75
ATOM     75  CB  ASP A   3      24.099  27.802  19.052  0.00  0.00    +0.143 C 
BRANCH  75  76
ATOM     76  CG  ASP A   3      22.909  28.195  18.208  0.00  0.00    +0.367 C 
ATOM     77  OD2 ASP A   3      21.781  27.759  18.506  0.00  0.00    -0.246 OA
ATOM     78  OD1 ASP A   3      23.117  28.937  17.233  0.00  0.00    -0.246 OA
ENDBRANCH  75  76
ENDBRANCH  54  75
ENDBRANCH  50  54
ENDBRANCH  49  51
BRANCH  49  79
ATOM     79  CB  THR A   4      20.687  23.207  21.033  0.00  0.00    +0.137 C 
ATOM     80  CG2 THR A   4      21.440  23.024  22.351  0.00  0.00    +0.034 C 
BRANCH  79  81
ATOM     81  OG1 THR A   4      19.593  24.123  21.204  0.00  0.00    -0.382 OA
ATOM     82  HG1 THR A   4      19.110  24.223  20.345  0.00  0.00    +0.210 HD
ENDBRANCH  79  81
ENDBRANCH  49  79
ENDBRANCH  45  49
ENDBRANCH  44  46
ENDBRANCH   1  44
TORSDOF 35
REMARK  Name = ../refined-set-2016/3el1/3el1_pocket.pdb
REMARK  211 active torsions:
REMARK  status: ('A' for Active; 'I' for Inactive)
REMARK    1  A    between atoms: _1  and  _3
REMARK    2  A    between atoms: _3  and  _4
REMARK    3  A    between atoms: _3  and  _6
REMARK    4  A    between atoms: _6  and  _7
REMARK    5  A    between atoms: _7  and  _8
REMARK    6  A    between atoms: _8  and  _9
REMARK    7  A    between atoms: _18  and  _20
REMARK    8  A    between atoms: _20  and  _21
REMARK    9  A    between atoms: _20  and  _23
REMARK   10  A    between atoms: _23  and  _24
REMARK   11  A    between atoms: _27  and  _29
REMARK   12  A    between atoms: _29  and  _30
REMARK   13  A    between atoms: _29  and  _32
REMARK   14  A    between atoms: _32  and  _33
REMARK   15  A    between atoms: _36  and  _38
REMARK   16  A    between atoms: _38  and  _39
REMARK   17  A    between atoms: _38  and  _41
REMARK   18  A    between atoms: _41  and  _42
REMARK   19  A    between atoms: _45  and  _47
REMARK   20  A    between atoms: _47  and  _48
REMARK   21  A    between atoms: _47  and  _50
REMARK   22  A    between atoms: _50  and  _51
REMARK   23  A    between atoms: _54  and  _56
REMARK   24  A    between atoms: _56  and  _57
REMARK   25  A    between atoms: _59  and  _61
REMARK   26  A    between atoms: _61  and  _62
REMARK   27  A    between atoms: _65  and  _67
REMARK   28  A    between atoms: _67  and  _68
REMARK   29  A    between atoms: _67  and  _70
REMARK   30  A    between atoms: _70  and  _71
REMARK   31  A    between atoms: _74  and  _76
REMARK   32  A    between atoms: _76  and  _77
REMARK   33  A    between atoms: _76  and  _79
REMARK   34  A    between atoms: _79  and  _80
REMARK   35  A    between atoms: _83  and  _85
REMARK   36  A    between atoms: _85  and  _86
REMARK   37  A    between atoms: _85  and  _88
REMARK   38  A    between atoms: _88  and  _89
REMARK   39  A    between atoms: _92  and  _94
REMARK   40  A    between atoms: _94  and  _95
REMARK   41  A    between atoms: _94  and  _97
REMARK   42  A    between atoms: _100  and  _102
REMARK   43  A    between atoms: _102  and  _103
REMARK   44  A    between atoms: _102  and  _105
REMARK   45  A    between atoms: _105  and  _106
REMARK   46  A    between atoms: _106  and  _107
REMARK   47  A    between atoms: _109  and  _111
REMARK   48  A    between atoms: _111  and  _112
REMARK   49  A    between atoms: _111  and  _114
REMARK   50  A    between atoms: _114  and  _115
REMARK   51  A    between atoms: _118  and  _120
REMARK   52  A    between atoms: _120  and  _121
REMARK   53  A    between atoms: _123  and  _125
REMARK   54  A    between atoms: _125  and  _126
REMARK   55  A    between atoms: _128  and  _130
REMARK   56  A    between atoms: _130  and  _131
REMARK   57  A    between atoms: _130  and  _133
REMARK   58  A    between atoms: _133  and  _134
REMARK   59  A    between atoms: _137  and  _139
REMARK   60  A    between atoms: _139  and  _140
REMARK   61  A    between atoms: _142  and  _144
REMARK   62  A    between atoms: _144  and  _145
REMARK   63  A    between atoms: _147  and  _149
REMARK   64  A    between atoms: _149  and  _150
REMARK   65  A    between atoms: _149  and  _152
REMARK   66  A    between atoms: _152  and  _153
REMARK   67  A    between atoms: _159  and  _161
REMARK   68  A    between atoms: _161  and  _162
REMARK   69  A    between atoms: _161  and  _164
REMARK   70  A    between atoms: _164  and  _165
REMARK   71  A    between atoms: _168  and  _170
REMARK   72  A    between atoms: _170  and  _171
REMARK   73  A    between atoms: _170  and  _173
REMARK   74  A    between atoms: _176  and  _178
REMARK   75  A    between atoms: _178  and  _179
REMARK   76  A    between atoms: _178  and  _181
REMARK   77  A    between atoms: _181  and  _182
REMARK   78  A    between atoms: _186  and  _187
REMARK   79  A    between atoms: _192  and  _194
REMARK   80  A    between atoms: _194  and  _195
REMARK   81  A    between atoms: _194  and  _197
REMARK   82  A    between atoms: _197  and  _198
REMARK   83  A    between atoms: _202  and  _203
REMARK   84  A    between atoms: _208  and  _210
REMARK   85  A    between atoms: _210  and  _211
REMARK   86  A    between atoms: _210  and  _213
REMARK   87  A    between atoms: _216  and  _218
REMARK   88  A    between atoms: _218  and  _219
REMARK   89  A    between atoms: _218  and  _221
REMARK   90  A    between atoms: _221  and  _222
REMARK   91  A    between atoms: _227  and  _229
REMARK   92  A    between atoms: _229  and  _230
REMARK   93  A    between atoms: _229  and  _232
REMARK   94  A    between atoms: _232  and  _233
REMARK   95  A    between atoms: _236  and  _238
REMARK   96  A    between atoms: _238  and  _239
REMARK   97  A    between atoms: _238  and  _241
REMARK   98  A    between atoms: _241  and  _242
REMARK   99  A    between atoms: _245  and  _247
REMARK  100  A    between atoms: _247  and  _248
REMARK  101  A    between atoms: _250  and  _252
REMARK  102  A    between atoms: _252  and  _253
REMARK  103  A    between atoms: _252  and  _255
REMARK  104  A    between atoms: _255  and  _256
REMARK  105  A    between atoms: _256  and  _257
REMARK  106  A    between atoms: _257  and  _258
REMARK  107  A    between atoms: _267  and  _269
REMARK  108  A    between atoms: _269  and  _270
REMARK  109  A    between atoms: _269  and  _272
REMARK  110  A    between atoms: _272  and  _273
REMARK  111  A    between atoms: _273  and  _274
REMARK  112  A    between atoms: _274  and  _275
REMARK  113  A    between atoms: _284  and  _286
REMARK  114  A    between atoms: _286  and  _287
REMARK  115  A    between atoms: _286  and  _289
REMARK  116  A    between atoms: _289  and  _290
REMARK  117  A    between atoms: _293  and  _295
REMARK  118  A    between atoms: _295  and  _296
REMARK  119  A    between atoms: _295  and  _298
REMARK  120  A    between atoms: _298  and  _299
REMARK  121  A    between atoms: _302  and  _304
REMARK  122  A    between atoms: _304  and  _305
REMARK  123  A    between atoms: _304  and  _307
REMARK  124  A    between atoms: _307  and  _308
REMARK  125  A    between atoms: _311  and  _313
REMARK  126  A    between atoms: _313  and  _314
REMARK  127  A    between atoms: _313  and  _316
REMARK  128  A    between atoms: _316  and  _317
REMARK  129  A    between atoms: _320  and  _322
REMARK  130  A    between atoms: _322  and  _323
REMARK  131  A    between atoms: _325  and  _327
REMARK  132  A    between atoms: _327  and  _328
REMARK  133  A    between atoms: _331  and  _333
REMARK  134  A    between atoms: _333  and  _334
REMARK  135  A    between atoms: _333  and  _336
REMARK  136  A    between atoms: _336  and  _337
REMARK  137  A    between atoms: _340  and  _342
REMARK  138  A    between atoms: _342  and  _343
REMARK  139  A    between atoms: _342  and  _345
REMARK  140  A    between atoms: _345  and  _346
REMARK  141  A    between atoms: _349  and  _351
REMARK  142  A    between atoms: _351  and  _352
REMARK  143  A    between atoms: _351  and  _354
REMARK  144  A    between atoms: _354  and  _355
REMARK  145  A    between atoms: _358  and  _360
REMARK  146  A    between atoms: _360  and  _361
REMARK  147  A    between atoms: _360  and  _363
REMARK  148  A    between atoms: _366  and  _368
REMARK  149  A    between atoms: _368  and  _369
REMARK  150  A    between atoms: _368  and  _371
REMARK  151  A    between atoms: _371  and  _372
REMARK  152  A    between atoms: _375  and  _377
REMARK  153  A    between atoms: _377  and  _378
REMARK  154  A    between atoms: _380  and  _382
REMARK  155  A    between atoms: _382  and  _383
REMARK  156  A    between atoms: _385  and  _387
REMARK  157  A    between atoms: _387  and  _388
REMARK  158  A    between atoms: _387  and  _390
REMARK  159  A    between atoms: _390  and  _391
REMARK  160  A    between atoms: _394  and  _396
REMARK  161  A    between atoms: _396  and  _397
REMARK  162  A    between atoms: _399  and  _401
REMARK  163  A    between atoms: _401  and  _402
REMARK  164  A    between atoms: _404  and  _406
REMARK  165  A    between atoms: _406  and  _407
REMARK  166  A    between atoms: _406  and  _409
REMARK  167  A    between atoms: _409  and  _410
REMARK  168  A    between atoms: _416  and  _418
REMARK  169  A    between atoms: _418  and  _419
REMARK  170  A    between atoms: _418  and  _421
REMARK  171  A    between atoms: _421  and  _422
REMARK  172  A    between atoms: _425  and  _427
REMARK  173  A    between atoms: _427  and  _428
REMARK  174  A    between atoms: _427  and  _430
REMARK  175  A    between atoms: _433  and  _435
REMARK  176  A    between atoms: _435  and  _436
REMARK  177  A    between atoms: _435  and  _438
REMARK  178  A    between atoms: _438  and  _439
REMARK  179  A    between atoms: _443  and  _444
REMARK  180  A    between atoms: _449  and  _451
REMARK  181  A    between atoms: _451  and  _452
REMARK  182  A    between atoms: _451  and  _454
REMARK  183  A    between atoms: _454  and  _455
REMARK  184  A    between atoms: _459  and  _460
REMARK  185  A    between atoms: _465  and  _467
REMARK  186  A    between atoms: _467  and  _468
REMARK  187  A    between atoms: _467  and  _470
REMARK  188  A    between atoms: _473  and  _475
REMARK  189  A    between atoms: _475  and  _476
REMARK  190  A    between atoms: _475  and  _478
REMARK  191  A    between atoms: _478  and  _479
REMARK  192  A    between atoms: _484  and  _486
REMARK  193  A    between atoms: _486  and  _487
REMARK  194  A    between atoms: _486  and  _489
REMARK  195  A    between atoms: _489  and  _490
REMARK  196  A    between atoms: _493  and  _495
REMARK  197  A    between atoms: _495  and  _496
REMARK  198  A    between atoms: _495  and  _498
REMARK  199  A    between atoms: _498  and  _499
REMARK  200  A    between atoms: _502  and  _504
REMARK  201  A    between atoms: _504  and  _505
REMARK  202  A    between atoms: _507  and  _509
REMARK  203  A    between atoms: _509  and  _510
REMARK  204  A    between atoms: _509  and  _512
REMARK  205  A    between atoms: _512  and  _513
REMARK  206  A    between atoms: _513  and  _514
REMARK  207  A    between atoms: _514  and  _515
REMARK  208  A    between atoms: _524  and  _526
REMARK  209  A    between atoms: _526  and  _527
REMARK  210  A    between atoms: _526  and  _529
REMARK  211  A    between atoms: _529  and  _530
REMARK                            x       y       z     vdW  Elec       q    Type
REMARK                         _______ _______ _______ _____ _____    ______ ____
ROOT
ATOM      1  C   ILE A   4      18.000  34.354   8.392  0.00  0.00    +0.241 C 
ATOM      2  O   ILE A   4      19.118  34.741   8.730  0.00  0.00    -0.273 OA
ATOM      3  N   GLY A   5      17.322  34.910   7.403  0.00  0.00    -0.295 N 
ATOM      4  H   GLY A   5      16.391  34.532   7.136  0.00  0.00    +0.150 HD
ENDROOT
BRANCH   3   5
ATOM      5  CA  GLY A   5      17.872  36.043   6.691  0.00  0.00    +0.176 C 
BRANCH   5   6
ATOM      6  C   GLY A   5      18.727  35.645   5.508  0.00  0.00    +0.243 C 
ATOM      7  N   GLY A   6      19.008  34.349   5.340  0.00  0.00    -0.295 N 
ATOM      8  H   GLY A   6      18.830  33.672   6.109  0.00  0.00    +0.150 HD
ATOM      9  O   GLY A   5      19.166  36.522   4.757  0.00  0.00    -0.273 OA
BRANCH   7  10
ATOM     10  CA  GLY A   6      19.567  33.887   4.070  0.00  0.00    +0.176 C 
BRANCH  10  11
ATOM     11  C   GLY A   6      20.940  33.271   4.251  0.00  0.00    +0.243 C 
ATOM     12  O   GLY A   6      21.296  32.831   5.348  0.00  0.00    -0.273 OA
ATOM     13  N   PHE A   7      21.706  33.229   3.162  0.00  0.00    -0.297 N 
ATOM     14  H   PHE A   7      21.370  33.676   2.285  0.00  0.00    +0.150 HD
BRANCH  13  15
ATOM     15  CA  PHE A   7      23.012  32.566   3.175  0.00  0.00    +0.153 C 
BRANCH  15  16
ATOM     16  C   PHE A   7      24.171  33.552   3.257  0.00  0.00    +0.241 C 
ATOM     17  N   ILE A   8      25.275  33.087   3.838  0.00  0.00    -0.298 N 
ATOM     18  H   ILE A   8      25.251  32.142   4.272  0.00  0.00    +0.150 HD
ATOM     19  O   PHE A   7      24.065  34.695   2.813  0.00  0.00    -0.273 OA
BRANCH  17  20
ATOM     20  CA  ILE A   8      26.515  33.849   3.890  0.00  0.00    +0.137 C 
BRANCH  20  21
ATOM     21  C   ILE A   8      27.669  32.972   3.453  0.00  0.00    +0.227 C 
ATOM     22  O   ILE A   8      27.594  31.749   3.567  0.00  0.00    -0.286 OA
ENDBRANCH  20  21
BRANCH  20  23
ATOM     23  CB  ILE A   8      26.821  34.368   5.312  0.00  0.00    +0.026 C 
ATOM     24  CG2 ILE A   8      25.696  35.294   5.796  0.00  0.00    +0.002 C 
BRANCH  23  25
ATOM     25  CG1 ILE A   8      27.003  33.216   6.308  0.00  0.00    +0.002 C 
ATOM     26  CD1 ILE A   8      27.567  33.681   7.657  0.00  0.00    +0.000 C 
ENDBRANCH  23  25
ENDBRANCH  20  23
ENDBRANCH  17  20
ENDBRANCH  15  16
BRANCH  15  27
ATOM     27  CB  PHE A   7      23.154  31.667   1.938  0.00  0.00    +0.055 C 
BRANCH  27  28
ATOM     28  CG  PHE A   7      22.393  30.383   2.060  0.00  0.00    -0.020 A 
ATOM     29  CD2 PHE A   7      23.058  29.186   2.268  0.00  0.00    -0.004 A 
ATOM     30  CE2 PHE A   7      22.353  28.003   2.410  0.00  0.00    -0.000 A 
ATOM     31  CZ  PHE A   7      20.981  28.013   2.362  0.00  0.00    -0.000 A 
ATOM     32  CE1 PHE A   7      20.304  29.197   2.170  0.00  0.00    -0.000 A 
ATOM     33  CD1 PHE A   7      21.015  30.380   2.015  0.00  0.00    -0.004 A 
ENDBRANCH  27  28
ENDBRANCH  15  27
ENDBRANCH  13  15
ENDBRANCH  10  11
ENDBRANCH   7  10
ENDBRANCH   5   6
ENDBRANCH   3   5
BRANCH   1  34
ATOM     34  CA  ILE A   4      17.348  33.156   9.067  0.00  0.00    +0.149 C 
BRANCH  34  36
ATOM     35  C   GLY A   3      19.018  31.601   8.296  0.00  0.00    +0.243 C 
ATOM     36  N   ILE A   4      18.414  32.210   9.306  0.00  0.00    -0.297 N 
ATOM     37  H   ILE A   4      18.710  32.005  10.282  0.00  0.00    +0.150 HD
ATOM     38  O   GLY A   3      18.581  31.607   7.127  0.00  0.00    -0.273 OA
BRANCH  35  39
ATOM     39  CA  GLY A   3      20.282  30.861   8.649  0.00  0.00    +0.176 C 
BRANCH  39  42
ATOM     40  C   GLY A   2      21.640  29.537   7.131  0.00  0.00    +0.243 C 
ATOM     41  O   GLY A   2      21.713  28.589   7.895  0.00  0.00    -0.273 OA
ATOM     42  N   GLY A   3      21.048  30.682   7.432  0.00  0.00    -0.295 N 
ATOM     43  H   GLY A   3      21.136  31.481   6.772  0.00  0.00    +0.150 HD
BRANCH  40  44
ATOM     44  CA  GLY A   2      22.272  29.465   5.770  0.00  0.00    +0.176 C 
BRANCH  44  46
ATOM     45  C   ILE A   1      24.636  29.234   5.321  0.00  0.00    +0.238 C 
ATOM     46  N   GLY A   2      23.515  28.718   5.805  0.00  0.00    -0.296 N 
ATOM     47  H   GLY A   2      23.527  27.763   6.216  0.00  0.00    +0.150 HD
ATOM     48  O   ILE A   1      24.749  30.413   5.007  0.00  0.00    -0.274 OA
BRANCH  45  49
ATOM     49  CA  ILE A   1      25.812  28.296   5.203  0.00  0.00    +0.145 C 
BRANCH  49  50
ATOM     50  N   ILE A   1      26.724  28.818   4.179  0.00  0.00    -0.238 NA
ATOM     51  H   ILE A   1      26.969  29.829   4.187  0.00  0.00    +0.142 HD
ENDBRANCH  49  50
BRANCH  49  52
ATOM     52  CB  ILE A   1      26.479  28.147   6.591  0.00  0.00    +0.025 C 
ATOM     53  CG2 ILE A   1      27.629  27.154   6.536  0.00  0.00    +0.002 C 
BRANCH  52  54
ATOM     54  CG1 ILE A   1      26.962  29.504   7.118  0.00  0.00    +0.002 C 
ATOM     55  CD1 ILE A   1      27.515  29.435   8.525  0.00  0.00    +0.000 C 
ENDBRANCH  52  54
ENDBRANCH  49  52
ENDBRANCH  45  49
ENDBRANCH  44  46
ENDBRANCH  40  44
ENDBRANCH  39  42
ENDBRANCH  35  39
ENDBRANCH  34  36
BRANCH  34  56
ATOM     56  CB  ILE A   4      16.639  33.557  10.366  0.00  0.00    +0.027 C 
ATOM     57  CG2 ILE A   4      15.806  34.818  10.154  0.00  0.00    +0.002 C 
BRANCH  56  58
ATOM     58  CG1 ILE A   4      15.742  32.406  10.832  0.00  0.00    +0.002 C 
ATOM     59  CD1 ILE A   4      15.089  32.637  12.173  0.00  0.00    +0.000 C 
ENDBRANCH  56  58
ENDBRANCH  34  56
ENDBRANCH   1  34
TORSDOF 24
REMARK  Name = ../refined-set-2016/3el1/3el1_pocket.pdb
REMARK  211 active torsions:
REMARK  status: ('A' for Active; 'I' for Inactive)
REMARK    1  A    between atoms: _1  and  _3
REMARK    2  A    between atoms: _3  and  _4
REMARK    3  A    between atoms: _3  and  _6
REMARK    4  A    between atoms: _6  and  _7
REMARK    5  A    between atoms: _7  and  _8
REMARK    6  A    between atoms: _8  and  _9
REMARK    7  A    between atoms: _18  and  _20
REMARK    8  A    between atoms: _20  and  _21
REMARK    9  A    between atoms: _20  and  _23
REMARK   10  A    between atoms: _23  and  _24
REMARK   11  A    between atoms: _27  and  _29
REMARK   12  A    between atoms: _29  and  _30
REMARK   13  A    between atoms: _29  and  _32
REMARK   14  A    between atoms: _32  and  _33
REMARK   15  A    between atoms: _36  and  _38
REMARK   16  A    between atoms: _38  and  _39
REMARK   17  A    between atoms: _38  and  _41
REMARK   18  A    between atoms: _41  and  _42
REMARK   19  A    between atoms: _45  and  _47
REMARK   20  A    between atoms: _47  and  _48
REMARK   21  A    between atoms: _47  and  _50
REMARK   22  A    between atoms: _50  and  _51
REMARK   23  A    between atoms: _54  and  _56
REMARK   24  A    between atoms: _56  and  _57
REMARK   25  A    between atoms: _59  and  _61
REMARK   26  A    between atoms: _61  and  _62
REMARK   27  A    between atoms: _65  and  _67
REMARK   28  A    between atoms: _67  and  _68
REMARK   29  A    between atoms: _67  and  _70
REMARK   30  A    between atoms: _70  and  _71
REMARK   31  A    between atoms: _74  and  _76
REMARK   32  A    between atoms: _76  and  _77
REMARK   33  A    between atoms: _76  and  _79
REMARK   34  A    between atoms: _79  and  _80
REMARK   35  A    between atoms: _83  and  _85
REMARK   36  A    between atoms: _85  and  _86
REMARK   37  A    between atoms: _85  and  _88
REMARK   38  A    between atoms: _88  and  _89
REMARK   39  A    between atoms: _92  and  _94
REMARK   40  A    between atoms: _94  and  _95
REMARK   41  A    between atoms: _94  and  _97
REMARK   42  A    between atoms: _100  and  _102
REMARK   43  A    between atoms: _102  and  _103
REMARK   44  A    between atoms: _102  and  _105
REMARK   45  A    between atoms: _105  and  _106
REMARK   46  A    between atoms: _106  and  _107
REMARK   47  A    between atoms: _109  and  _111
REMARK   48  A    between atoms: _111  and  _112
REMARK   49  A    between atoms: _111  and  _114
REMARK   50  A    between atoms: _114  and  _115
REMARK   51  A    between atoms: _118  and  _120
REMARK   52  A    between atoms: _120  and  _121
REMARK   53  A    between atoms: _123  and  _125
REMARK   54  A    between atoms: _125  and  _126
REMARK   55  A    between atoms: _128  and  _130
REMARK   56  A    between atoms: _130  and  _131
REMARK   57  A    between atoms: _130  and  _133
REMARK   58  A    between atoms: _133  and  _134
REMARK   59  A    between atoms: _137  and  _139
REMARK   60  A    between atoms: _139  and  _140
REMARK   61  A    between atoms: _142  and  _144
REMARK   62  A    between atoms: _144  and  _145
REMARK   63  A    between atoms: _147  and  _149
REMARK   64  A    between atoms: _149  and  _150
REMARK   65  A    between atoms: _149  and  _152
REMARK   66  A    between atoms: _152  and  _153
REMARK   67  A    between atoms: _159  and  _161
REMARK   68  A    between atoms: _161  and  _162
REMARK   69  A    between atoms: _161  and  _164
REMARK   70  A    between atoms: _164  and  _165
REMARK   71  A    between atoms: _168  and  _170
REMARK   72  A    between atoms: _170  and  _171
REMARK   73  A    between atoms: _170  and  _173
REMARK   74  A    between atoms: _176  and  _178
REMARK   75  A    between atoms: _178  and  _179
REMARK   76  A    between atoms: _178  and  _181
REMARK   77  A    between atoms: _181  and  _182
REMARK   78  A    between atoms: _186  and  _187
REMARK   79  A    between atoms: _192  and  _194
REMARK   80  A    between atoms: _194  and  _195
REMARK   81  A    between atoms: _194  and  _197
REMARK   82  A    between atoms: _197  and  _198
REMARK   83  A    between atoms: _202  and  _203
REMARK   84  A    between atoms: _208  and  _210
REMARK   85  A    between atoms: _210  and  _211
REMARK   86  A    between atoms: _210  and  _213
REMARK   87  A    between atoms: _216  and  _218
REMARK   88  A    between atoms: _218  and  _219
REMARK   89  A    between atoms: _218  and  _221
REMARK   90  A    between atoms: _221  and  _222
REMARK   91  A    between atoms: _227  and  _229
REMARK   92  A    between atoms: _229  and  _230
REMARK   93  A    between atoms: _229  and  _232
REMARK   94  A    between atoms: _232  and  _233
REMARK   95  A    between atoms: _236  and  _238
REMARK   96  A    between atoms: _238  and  _239
REMARK   97  A    between atoms: _238  and  _241
REMARK   98  A    between atoms: _241  and  _242
REMARK   99  A    between atoms: _245  and  _247
REMARK  100  A    between atoms: _247  and  _248
REMARK  101  A    between atoms: _250  and  _252
REMARK  102  A    between atoms: _252  and  _253
REMARK  103  A    between atoms: _252  and  _255
REMARK  104  A    between atoms: _255  and  _256
REMARK  105  A    between atoms: _256  and  _257
REMARK  106  A    between atoms: _257  and  _258
REMARK  107  A    between atoms: _267  and  _269
REMARK  108  A    between atoms: _269  and  _270
REMARK  109  A    between atoms: _269  and  _272
REMARK  110  A    between atoms: _272  and  _273
REMARK  111  A    between atoms: _273  and  _274
REMARK  112  A    between atoms: _274  and  _275
REMARK  113  A    between atoms: _284  and  _286
REMARK  114  A    between atoms: _286  and  _287
REMARK  115  A    between atoms: _286  and  _289
REMARK  116  A    between atoms: _289  and  _290
REMARK  117  A    between atoms: _293  and  _295
REMARK  118  A    between atoms: _295  and  _296
REMARK  119  A    between atoms: _295  and  _298
REMARK  120  A    between atoms: _298  and  _299
REMARK  121  A    between atoms: _302  and  _304
REMARK  122  A    between atoms: _304  and  _305
REMARK  123  A    between atoms: _304  and  _307
REMARK  124  A    between atoms: _307  and  _308
REMARK  125  A    between atoms: _311  and  _313
REMARK  126  A    between atoms: _313  and  _314
REMARK  127  A    between atoms: _313  and  _316
REMARK  128  A    between atoms: _316  and  _317
REMARK  129  A    between atoms: _320  and  _322
REMARK  130  A    between atoms: _322  and  _323
REMARK  131  A    between atoms: _325  and  _327
REMARK  132  A    between atoms: _327  and  _328
REMARK  133  A    between atoms: _331  and  _333
REMARK  134  A    between atoms: _333  and  _334
REMARK  135  A    between atoms: _333  and  _336
REMARK  136  A    between atoms: _336  and  _337
REMARK  137  A    between atoms: _340  and  _342
REMARK  138  A    between atoms: _342  and  _343
REMARK  139  A    between atoms: _342  and  _345
REMARK  140  A    between atoms: _345  and  _346
REMARK  141  A    between atoms: _349  and  _351
REMARK  142  A    between atoms: _351  and  _352
REMARK  143  A    between atoms: _351  and  _354
REMARK  144  A    between atoms: _354  and  _355
REMARK  145  A    between atoms: _358  and  _360
REMARK  146  A    between atoms: _360  and  _361
REMARK  147  A    between atoms: _360  and  _363
REMARK  148  A    between atoms: _366  and  _368
REMARK  149  A    between atoms: _368  and  _369
REMARK  150  A    between atoms: _368  and  _371
REMARK  151  A    between atoms: _371  and  _372
REMARK  152  A    between atoms: _375  and  _377
REMARK  153  A    between atoms: _377  and  _378
REMARK  154  A    between atoms: _380  and  _382
REMARK  155  A    between atoms: _382  and  _383
REMARK  156  A    between atoms: _385  and  _387
REMARK  157  A    between atoms: _387  and  _388
REMARK  158  A    between atoms: _387  and  _390
REMARK  159  A    between atoms: _390  and  _391
REMARK  160  A    between atoms: _394  and  _396
REMARK  161  A    between atoms: _396  and  _397
REMARK  162  A    between atoms: _399  and  _401
REMARK  163  A    between atoms: _401  and  _402
REMARK  164  A    between atoms: _404  and  _406
REMARK  165  A    between atoms: _406  and  _407
REMARK  166  A    between atoms: _406  and  _409
REMARK  167  A    between atoms: _409  and  _410
REMARK  168  A    between atoms: _416  and  _418
REMARK  169  A    between atoms: _418  and  _419
REMARK  170  A    between atoms: _418  and  _421
REMARK  171  A    between atoms: _421  and  _422
REMARK  172  A    between atoms: _425  and  _427
REMARK  173  A    between atoms: _427  and  _428
REMARK  174  A    between atoms: _427  and  _430
REMARK  175  A    between atoms: _433  and  _435
REMARK  176  A    between atoms: _435  and  _436
REMARK  177  A    between atoms: _435  and  _438
REMARK  178  A    between atoms: _438  and  _439
REMARK  179  A    between atoms: _443  and  _444
REMARK  180  A    between atoms: _449  and  _451
REMARK  181  A    between atoms: _451  and  _452
REMARK  182  A    between atoms: _451  and  _454
REMARK  183  A    between atoms: _454  and  _455
REMARK  184  A    between atoms: _459  and  _460
REMARK  185  A    between atoms: _465  and  _467
REMARK  186  A    between atoms: _467  and  _468
REMARK  187  A    between atoms: _467  and  _470
REMARK  188  A    between atoms: _473  and  _475
REMARK  189  A    between atoms: _475  and  _476
REMARK  190  A    between atoms: _475  and  _478
REMARK  191  A    between atoms: _478  and  _479
REMARK  192  A    between atoms: _484  and  _486
REMARK  193  A    between atoms: _486  and  _487
REMARK  194  A    between atoms: _486  and  _489
REMARK  195  A    between atoms: _489  and  _490
REMARK  196  A    between atoms: _493  and  _495
REMARK  197  A    between atoms: _495  and  _496
REMARK  198  A    between atoms: _495  and  _498
REMARK  199  A    between atoms: _498  and  _499
REMARK  200  A    between atoms: _502  and  _504
REMARK  201  A    between atoms: _504  and  _505
REMARK  202  A    between atoms: _507  and  _509
REMARK  203  A    between atoms: _509  and  _510
REMARK  204  A    between atoms: _509  and  _512
REMARK  205  A    between atoms: _512  and  _513
REMARK  206  A    between atoms: _513  and  _514
REMARK  207  A    between atoms: _514  and  _515
REMARK  208  A    between atoms: _524  and  _526
REMARK  209  A    between atoms: _526  and  _527
REMARK  210  A    between atoms: _526  and  _529
REMARK  211  A    between atoms: _529  and  _530
REMARK                            x       y       z     vdW  Elec       q    Type
REMARK                         _______ _______ _______ _____ _____    ______ ____
ROOT
ATOM      1  CA  VAL A   1      32.341  31.520   5.275  0.00  0.00    +0.133 C 
ENDROOT
BRANCH   1   2
ATOM      2  CB  VAL A   1      31.676  30.690   6.393  0.00  0.00    +0.023 C 
ATOM      3  CG2 VAL A   1      30.532  31.483   7.028  0.00  0.00    +0.002 C 
ATOM      4  CG1 VAL A   1      31.190  29.344   5.834  0.00  0.00    +0.002 C 
ENDBRANCH   1   2
BRANCH   1   5
ATOM      5  N   VAL A   1      31.446  31.709   4.142  0.00  0.00    -0.239 NA
ATOM      6  H   VAL A   1      31.254  30.903   3.513  0.00  0.00    +0.142 HD
ENDBRANCH   1   5
BRANCH   1   7
ATOM      7  C   VAL A   1      33.610  30.800   4.842  0.00  0.00    +0.224 C 
ATOM      8  O   VAL A   1      33.679  30.236   3.752  0.00  0.00    -0.287 OA
ENDBRANCH   1   7
TORSDOF 3
REMARK  Name = ../refined-set-2016/3el1/3el1_pocket.pdb
REMARK  211 active torsions:
REMARK  status: ('A' for Active; 'I' for Inactive)
REMARK    1  A    between atoms: _1  and  _3
REMARK    2  A    between atoms: _3  and  _4
REMARK    3  A    between atoms: _3  and  _6
REMARK    4  A    between atoms: _6  and  _7
REMARK    5  A    between atoms: _7  and  _8
REMARK    6  A    between atoms: _8  and  _9
REMARK    7  A    between atoms: _18  and  _20
REMARK    8  A    between atoms: _20  and  _21
REMARK    9  A    between atoms: _20  and  _23
REMARK   10  A    between atoms: _23  and  _24
REMARK   11  A    between atoms: _27  and  _29
REMARK   12  A    between atoms: _29  and  _30
REMARK   13  A    between atoms: _29  and  _32
REMARK   14  A    between atoms: _32  and  _33
REMARK   15  A    between atoms: _36  and  _38
REMARK   16  A    between atoms: _38  and  _39
REMARK   17  A    between atoms: _38  and  _41
REMARK   18  A    between atoms: _41  and  _42
REMARK   19  A    between atoms: _45  and  _47
REMARK   20  A    between atoms: _47  and  _48
REMARK   21  A    between atoms: _47  and  _50
REMARK   22  A    between atoms: _50  and  _51
REMARK   23  A    between atoms: _54  and  _56
REMARK   24  A    between atoms: _56  and  _57
REMARK   25  A    between atoms: _59  and  _61
REMARK   26  A    between atoms: _61  and  _62
REMARK   27  A    between atoms: _65  and  _67
REMARK   28  A    between atoms: _67  and  _68
REMARK   29  A    between atoms: _67  and  _70
REMARK   30  A    between atoms: _70  and  _71
REMARK   31  A    between atoms: _74  and  _76
REMARK   32  A    between atoms: _76  and  _77
REMARK   33  A    between atoms: _76  and  _79
REMARK   34  A    between atoms: _79  and  _80
REMARK   35  A    between atoms: _83  and  _85
REMARK   36  A    between atoms: _85  and  _86
REMARK   37  A    between atoms: _85  and  _88
REMARK   38  A    between atoms: _88  and  _89
REMARK   39  A    between atoms: _92  and  _94
REMARK   40  A    between atoms: _94  and  _95
REMARK   41  A    between atoms: _94  and  _97
REMARK   42  A    between atoms: _100  and  _102
REMARK   43  A    between atoms: _102  and  _103
REMARK   44  A    between atoms: _102  and  _105
REMARK   45  A    between atoms: _105  and  _106
REMARK   46  A    between atoms: _106  and  _107
REMARK   47  A    between atoms: _109  and  _111
REMARK   48  A    between atoms: _111  and  _112
REMARK   49  A    between atoms: _111  and  _114
REMARK   50  A    between atoms: _114  and  _115
REMARK   51  A    between atoms: _118  and  _120
REMARK   52  A    between atoms: _120  and  _121
REMARK   53  A    between atoms: _123  and  _125
REMARK   54  A    between atoms: _125  and  _126
REMARK   55  A    between atoms: _128  and  _130
REMARK   56  A    between atoms: _130  and  _131
REMARK   57  A    between atoms: _130  and  _133
REMARK   58  A    between atoms: _133  and  _134
REMARK   59  A    between atoms: _137  and  _139
REMARK   60  A    between atoms: _139  and  _140
REMARK   61  A    between atoms: _142  and  _144
REMARK   62  A    between atoms: _144  and  _145
REMARK   63  A    between atoms: _147  and  _149
REMARK   64  A    between atoms: _149  and  _150
REMARK   65  A    between atoms: _149  and  _152
REMARK   66  A    between atoms: _152  and  _153
REMARK   67  A    between atoms: _159  and  _161
REMARK   68  A    between atoms: _161  and  _162
REMARK   69  A    between atoms: _161  and  _164
REMARK   70  A    between atoms: _164  and  _165
REMARK   71  A    between atoms: _168  and  _170
REMARK   72  A    between atoms: _170  and  _171
REMARK   73  A    between atoms: _170  and  _173
REMARK   74  A    between atoms: _176  and  _178
REMARK   75  A    between atoms: _178  and  _179
REMARK   76  A    between atoms: _178  and  _181
REMARK   77  A    between atoms: _181  and  _182
REMARK   78  A    between atoms: _186  and  _187
REMARK   79  A    between atoms: _192  and  _194
REMARK   80  A    between atoms: _194  and  _195
REMARK   81  A    between atoms: _194  and  _197
REMARK   82  A    between atoms: _197  and  _198
REMARK   83  A    between atoms: _202  and  _203
REMARK   84  A    between atoms: _208  and  _210
REMARK   85  A    between atoms: _210  and  _211
REMARK   86  A    between atoms: _210  and  _213
REMARK   87  A    between atoms: _216  and  _218
REMARK   88  A    between atoms: _218  and  _219
REMARK   89  A    between atoms: _218  and  _221
REMARK   90  A    between atoms: _221  and  _222
REMARK   91  A    between atoms: _227  and  _229
REMARK   92  A    between atoms: _229  and  _230
REMARK   93  A    between atoms: _229  and  _232
REMARK   94  A    between atoms: _232  and  _233
REMARK   95  A    between atoms: _236  and  _238
REMARK   96  A    between atoms: _238  and  _239
REMARK   97  A    between atoms: _238  and  _241
REMARK   98  A    between atoms: _241  and  _242
REMARK   99  A    between atoms: _245  and  _247
REMARK  100  A    between atoms: _247  and  _248
REMARK  101  A    between atoms: _250  and  _252
REMARK  102  A    between atoms: _252  and  _253
REMARK  103  A    between atoms: _252  and  _255
REMARK  104  A    between atoms: _255  and  _256
REMARK  105  A    between atoms: _256  and  _257
REMARK  106  A    between atoms: _257  and  _258
REMARK  107  A    between atoms: _267  and  _269
REMARK  108  A    between atoms: _269  and  _270
REMARK  109  A    between atoms: _269  and  _272
REMARK  110  A    between atoms: _272  and  _273
REMARK  111  A    between atoms: _273  and  _274
REMARK  112  A    between atoms: _274  and  _275
REMARK  113  A    between atoms: _284  and  _286
REMARK  114  A    between atoms: _286  and  _287
REMARK  115  A    between atoms: _286  and  _289
REMARK  116  A    between atoms: _289  and  _290
REMARK  117  A    between atoms: _293  and  _295
REMARK  118  A    between atoms: _295  and  _296
REMARK  119  A    between atoms: _295  and  _298
REMARK  120  A    between atoms: _298  and  _299
REMARK  121  A    between atoms: _302  and  _304
REMARK  122  A    between atoms: _304  and  _305
REMARK  123  A    between atoms: _304  and  _307
REMARK  124  A    between atoms: _307  and  _308
REMARK  125  A    between atoms: _311  and  _313
REMARK  126  A    between atoms: _313  and  _314
REMARK  127  A    between atoms: _313  and  _316
REMARK  128  A    between atoms: _316  and  _317
REMARK  129  A    between atoms: _320  and  _322
REMARK  130  A    between atoms: _322  and  _323
REMARK  131  A    between atoms: _325  and  _327
REMARK  132  A    between atoms: _327  and  _328
REMARK  133  A    between atoms: _331  and  _333
REMARK  134  A    between atoms: _333  and  _334
REMARK  135  A    between atoms: _333  and  _336
REMARK  136  A    between atoms: _336  and  _337
REMARK  137  A    between atoms: _340  and  _342
REMARK  138  A    between atoms: _342  and  _343
REMARK  139  A    between atoms: _342  and  _345
REMARK  140  A    between atoms: _345  and  _346
REMARK  141  A    between atoms: _349  and  _351
REMARK  142  A    between atoms: _351  and  _352
REMARK  143  A    between atoms: _351  and  _354
REMARK  144  A    between atoms: _354  and  _355
REMARK  145  A    between atoms: _358  and  _360
REMARK  146  A    between atoms: _360  and  _361
REMARK  147  A    between atoms: _360  and  _363
REMARK  148  A    between atoms: _366  and  _368
REMARK  149  A    between atoms: _368  and  _369
REMARK  150  A    between atoms: _368  and  _371
REMARK  151  A    between atoms: _371  and  _372
REMARK  152  A    between atoms: _375  and  _377
REMARK  153  A    between atoms: _377  and  _378
REMARK  154  A    between atoms: _380  and  _382
REMARK  155  A    between atoms: _382  and  _383
REMARK  156  A    between atoms: _385  and  _387
REMARK  157  A    between atoms: _387  and  _388
REMARK  158  A    between atoms: _387  and  _390
REMARK  159  A    between atoms: _390  and  _391
REMARK  160  A    between atoms: _394  and  _396
REMARK  161  A    between atoms: _396  and  _397
REMARK  162  A    between atoms: _399  and  _401
REMARK  163  A    between atoms: _401  and  _402
REMARK  164  A    between atoms: _404  and  _406
REMARK  165  A    between atoms: _406  and  _407
REMARK  166  A    between atoms: _406  and  _409
REMARK  167  A    between atoms: _409  and  _410
REMARK  168  A    between atoms: _416  and  _418
REMARK  169  A    between atoms: _418  and  _419
REMARK  170  A    between atoms: _418  and  _421
REMARK  171  A    between atoms: _421  and  _422
REMARK  172  A    between atoms: _425  and  _427
REMARK  173  A    between atoms: _427  and  _428
REMARK  174  A    between atoms: _427  and  _430
REMARK  175  A    between atoms: _433  and  _435
REMARK  176  A    between atoms: _435  and  _436
REMARK  177  A    between atoms: _435  and  _438
REMARK  178  A    between atoms: _438  and  _439
REMARK  179  A    between atoms: _443  and  _444
REMARK  180  A    between atoms: _449  and  _451
REMARK  181  A    between atoms: _451  and  _452
REMARK  182  A    between atoms: _451  and  _454
REMARK  183  A    between atoms: _454  and  _455
REMARK  184  A    between atoms: _459  and  _460
REMARK  185  A    between atoms: _465  and  _467
REMARK  186  A    between atoms: _467  and  _468
REMARK  187  A    between atoms: _467  and  _470
REMARK  188  A    between atoms: _473  and  _475
REMARK  189  A    between atoms: _475  and  _476
REMARK  190  A    between atoms: _475  and  _478
REMARK  191  A    between atoms: _478  and  _479
REMARK  192  A    between atoms: _484  and  _486
REMARK  193  A    between atoms: _486  and  _487
REMARK  194  A    between atoms: _486  and  _489
REMARK  195  A    between atoms: _489  and  _490
REMARK  196  A    between atoms: _493  and  _495
REMARK  197  A    between atoms: _495  and  _496
REMARK  198  A    between atoms: _495  and  _498
REMARK  199  A    between atoms: _498  and  _499
REMARK  200  A    between atoms: _502  and  _504
REMARK  201  A    between atoms: _504  and  _505
REMARK  202  A    between atoms: _507  and  _509
REMARK  203  A    between atoms: _509  and  _510
REMARK  204  A    between atoms: _509  and  _512
REMARK  205  A    between atoms: _512  and  _513
REMARK  206  A    between atoms: _513  and  _514
REMARK  207  A    between atoms: _514  and  _515
REMARK  208  A    between atoms: _524  and  _526
REMARK  209  A    between atoms: _526  and  _527
REMARK  210  A    between atoms: _526  and  _529
REMARK  211  A    between atoms: _529  and  _530
REMARK                            x       y       z     vdW  Elec       q    Type
REMARK                         _______ _______ _______ _____ _____    ______ ____
ROOT
ATOM      1  CA  LEU A   1      33.595  28.152  10.114  0.00  0.00    +0.133 C 
ENDROOT
BRANCH   1   2
ATOM      2  N   LEU A   1      33.864  27.242  11.221  0.00  0.00    -0.239 NA
ATOM      3  H   LEU A   1      33.144  27.134  11.964  0.00  0.00    +0.142 HD
ENDBRANCH   1   2
BRANCH   1   4
ATOM      4  C   LEU A   1      33.828  29.566  10.612  0.00  0.00    +0.224 C 
ATOM      5  O   LEU A   1      33.517  29.883  11.765  0.00  0.00    -0.287 OA
ENDBRANCH   1   4
BRANCH   1   6
ATOM      6  CB  LEU A   1      32.149  28.004   9.632  0.00  0.00    +0.025 C 
BRANCH   6   7
ATOM      7  CG  LEU A   1      31.698  26.591   9.261  0.00  0.00    +0.002 C 
ATOM      8  CD2 LEU A   1      30.212  26.586   8.836  0.00  0.00    +0.000 C 
ATOM      9  CD1 LEU A   1      32.584  26.009   8.169  0.00  0.00    +0.000 C 
ENDBRANCH   6   7
ENDBRANCH   1   6
TORSDOF 4
REMARK  Name = ../refined-set-2016/3el1/3el1_pocket.pdb
REMARK  211 active torsions:
REMARK  status: ('A' for Active; 'I' for Inactive)
REMARK    1  A    between atoms: _1  and  _3
REMARK    2  A    between atoms: _3  and  _4
REMARK    3  A    between atoms: _3  and  _6
REMARK    4  A    between atoms: _6  and  _7
REMARK    5  A    between atoms: _7  and  _8
REMARK    6  A    between atoms: _8  and  _9
REMARK    7  A    between atoms: _18  and  _20
REMARK    8  A    between atoms: _20  and  _21
REMARK    9  A    between atoms: _20  and  _23
REMARK   10  A    between atoms: _23  and  _24
REMARK   11  A    between atoms: _27  and  _29
REMARK   12  A    between atoms: _29  and  _30
REMARK   13  A    between atoms: _29  and  _32
REMARK   14  A    between atoms: _32  and  _33
REMARK   15  A    between atoms: _36  and  _38
REMARK   16  A    between atoms: _38  and  _39
REMARK   17  A    between atoms: _38  and  _41
REMARK   18  A    between atoms: _41  and  _42
REMARK   19  A    between atoms: _45  and  _47
REMARK   20  A    between atoms: _47  and  _48
REMARK   21  A    between atoms: _47  and  _50
REMARK   22  A    between atoms: _50  and  _51
REMARK   23  A    between atoms: _54  and  _56
REMARK   24  A    between atoms: _56  and  _57
REMARK   25  A    between atoms: _59  and  _61
REMARK   26  A    between atoms: _61  and  _62
REMARK   27  A    between atoms: _65  and  _67
REMARK   28  A    between atoms: _67  and  _68
REMARK   29  A    between atoms: _67  and  _70
REMARK   30  A    between atoms: _70  and  _71
REMARK   31  A    between atoms: _74  and  _76
REMARK   32  A    between atoms: _76  and  _77
REMARK   33  A    between atoms: _76  and  _79
REMARK   34  A    between atoms: _79  and  _80
REMARK   35  A    between atoms: _83  and  _85
REMARK   36  A    between atoms: _85  and  _86
REMARK   37  A    between atoms: _85  and  _88
REMARK   38  A    between atoms: _88  and  _89
REMARK   39  A    between atoms: _92  and  _94
REMARK   40  A    between atoms: _94  and  _95
REMARK   41  A    between atoms: _94  and  _97
REMARK   42  A    between atoms: _100  and  _102
REMARK   43  A    between atoms: _102  and  _103
REMARK   44  A    between atoms: _102  and  _105
REMARK   45  A    between atoms: _105  and  _106
REMARK   46  A    between atoms: _106  and  _107
REMARK   47  A    between atoms: _109  and  _111
REMARK   48  A    between atoms: _111  and  _112
REMARK   49  A    between atoms: _111  and  _114
REMARK   50  A    between atoms: _114  and  _115
REMARK   51  A    between atoms: _118  and  _120
REMARK   52  A    between atoms: _120  and  _121
REMARK   53  A    between atoms: _123  and  _125
REMARK   54  A    between atoms: _125  and  _126
REMARK   55  A    between atoms: _128  and  _130
REMARK   56  A    between atoms: _130  and  _131
REMARK   57  A    between atoms: _130  and  _133
REMARK   58  A    between atoms: _133  and  _134
REMARK   59  A    between atoms: _137  and  _139
REMARK   60  A    between atoms: _139  and  _140
REMARK   61  A    between atoms: _142  and  _144
REMARK   62  A    between atoms: _144  and  _145
REMARK   63  A    between atoms: _147  and  _149
REMARK   64  A    between atoms: _149  and  _150
REMARK   65  A    between atoms: _149  and  _152
REMARK   66  A    between atoms: _152  and  _153
REMARK   67  A    between atoms: _159  and  _161
REMARK   68  A    between atoms: _161  and  _162
REMARK   69  A    between atoms: _161  and  _164
REMARK   70  A    between atoms: _164  and  _165
REMARK   71  A    between atoms: _168  and  _170
REMARK   72  A    between atoms: _170  and  _171
REMARK   73  A    between atoms: _170  and  _173
REMARK   74  A    between atoms: _176  and  _178
REMARK   75  A    between atoms: _178  and  _179
REMARK   76  A    between atoms: _178  and  _181
REMARK   77  A    between atoms: _181  and  _182
REMARK   78  A    between atoms: _186  and  _187
REMARK   79  A    between atoms: _192  and  _194
REMARK   80  A    between atoms: _194  and  _195
REMARK   81  A    between atoms: _194  and  _197
REMARK   82  A    between atoms: _197  and  _198
REMARK   83  A    between atoms: _202  and  _203
REMARK   84  A    between atoms: _208  and  _210
REMARK   85  A    between atoms: _210  and  _211
REMARK   86  A    between atoms: _210  and  _213
REMARK   87  A    between atoms: _216  and  _218
REMARK   88  A    between atoms: _218  and  _219
REMARK   89  A    between atoms: _218  and  _221
REMARK   90  A    between atoms: _221  and  _222
REMARK   91  A    between atoms: _227  and  _229
REMARK   92  A    between atoms: _229  and  _230
REMARK   93  A    between atoms: _229  and  _232
REMARK   94  A    between atoms: _232  and  _233
REMARK   95  A    between atoms: _236  and  _238
REMARK   96  A    between atoms: _238  and  _239
REMARK   97  A    between atoms: _238  and  _241
REMARK   98  A    between atoms: _241  and  _242
REMARK   99  A    between atoms: _245  and  _247
REMARK  100  A    between atoms: _247  and  _248
REMARK  101  A    between atoms: _250  and  _252
REMARK  102  A    between atoms: _252  and  _253
REMARK  103  A    between atoms: _252  and  _255
REMARK  104  A    between atoms: _255  and  _256
REMARK  105  A    between atoms: _256  and  _257
REMARK  106  A    between atoms: _257  and  _258
REMARK  107  A    between atoms: _267  and  _269
REMARK  108  A    between atoms: _269  and  _270
REMARK  109  A    between atoms: _269  and  _272
REMARK  110  A    between atoms: _272  and  _273
REMARK  111  A    between atoms: _273  and  _274
REMARK  112  A    between atoms: _274  and  _275
REMARK  113  A    between atoms: _284  and  _286
REMARK  114  A    between atoms: _286  and  _287
REMARK  115  A    between atoms: _286  and  _289
REMARK  116  A    between atoms: _289  and  _290
REMARK  117  A    between atoms: _293  and  _295
REMARK  118  A    between atoms: _295  and  _296
REMARK  119  A    between atoms: _295  and  _298
REMARK  120  A    between atoms: _298  and  _299
REMARK  121  A    between atoms: _302  and  _304
REMARK  122  A    between atoms: _304  and  _305
REMARK  123  A    between atoms: _304  and  _307
REMARK  124  A    between atoms: _307  and  _308
REMARK  125  A    between atoms: _311  and  _313
REMARK  126  A    between atoms: _313  and  _314
REMARK  127  A    between atoms: _313  and  _316
REMARK  128  A    between atoms: _316  and  _317
REMARK  129  A    between atoms: _320  and  _322
REMARK  130  A    between atoms: _322  and  _323
REMARK  131  A    between atoms: _325  and  _327
REMARK  132  A    between atoms: _327  and  _328
REMARK  133  A    between atoms: _331  and  _333
REMARK  134  A    between atoms: _333  and  _334
REMARK  135  A    between atoms: _333  and  _336
REMARK  136  A    between atoms: _336  and  _337
REMARK  137  A    between atoms: _340  and  _342
REMARK  138  A    between atoms: _342  and  _343
REMARK  139  A    between atoms: _342  and  _345
REMARK  140  A    between atoms: _345  and  _346
REMARK  141  A    between atoms: _349  and  _351
REMARK  142  A    between atoms: _351  and  _352
REMARK  143  A    between atoms: _351  and  _354
REMARK  144  A    between atoms: _354  and  _355
REMARK  145  A    between atoms: _358  and  _360
REMARK  146  A    between atoms: _360  and  _361
REMARK  147  A    between atoms: _360  and  _363
REMARK  148  A    between atoms: _366  and  _368
REMARK  149  A    between atoms: _368  and  _369
REMARK  150  A    between atoms: _368  and  _371
REMARK  151  A    between atoms: _371  and  _372
REMARK  152  A    between atoms: _375  and  _377
REMARK  153  A    between atoms: _377  and  _378
REMARK  154  A    between atoms: _380  and  _382
REMARK  155  A    between atoms: _382  and  _383
REMARK  156  A    between atoms: _385  and  _387
REMARK  157  A    between atoms: _387  and  _388
REMARK  158  A    between atoms: _387  and  _390
REMARK  159  A    between atoms: _390  and  _391
REMARK  160  A    between atoms: _394  and  _396
REMARK  161  A    between atoms: _396  and  _397
REMARK  162  A    between atoms: _399  and  _401
REMARK  163  A    between atoms: _401  and  _402
REMARK  164  A    between atoms: _404  and  _406
REMARK  165  A    between atoms: _406  and  _407
REMARK  166  A    between atoms: _406  and  _409
REMARK  167  A    between atoms: _409  and  _410
REMARK  168  A    between atoms: _416  and  _418
REMARK  169  A    between atoms: _418  and  _419
REMARK  170  A    between atoms: _418  and  _421
REMARK  171  A    between atoms: _421  and  _422
REMARK  172  A    between atoms: _425  and  _427
REMARK  173  A    between atoms: _427  and  _428
REMARK  174  A    between atoms: _427  and  _430
REMARK  175  A    between atoms: _433  and  _435
REMARK  176  A    between atoms: _435  and  _436
REMARK  177  A    between atoms: _435  and  _438
REMARK  178  A    between atoms: _438  and  _439
REMARK  179  A    between atoms: _443  and  _444
REMARK  180  A    between atoms: _449  and  _451
REMARK  181  A    between atoms: _451  and  _452
REMARK  182  A    between atoms: _451  and  _454
REMARK  183  A    between atoms: _454  and  _455
REMARK  184  A    between atoms: _459  and  _460
REMARK  185  A    between atoms: _465  and  _467
REMARK  186  A    between atoms: _467  and  _468
REMARK  187  A    between atoms: _467  and  _470
REMARK  188  A    between atoms: _473  and  _475
REMARK  189  A    between atoms: _475  and  _476
REMARK  190  A    between atoms: _475  and  _478
REMARK  191  A    between atoms: _478  and  _479
REMARK  192  A    between atoms: _484  and  _486
REMARK  193  A    between atoms: _486  and  _487
REMARK  194  A    between atoms: _486  and  _489
REMARK  195  A    between atoms: _489  and  _490
REMARK  196  A    between atoms: _493  and  _495
REMARK  197  A    between atoms: _495  and  _496
REMARK  198  A    between atoms: _495  and  _498
REMARK  199  A    between atoms: _498  and  _499
REMARK  200  A    between atoms: _502  and  _504
REMARK  201  A    between atoms: _504  and  _505
REMARK  202  A    between atoms: _507  and  _509
REMARK  203  A    between atoms: _509  and  _510
REMARK  204  A    between atoms: _509  and  _512
REMARK  205  A    between atoms: _512  and  _513
REMARK  206  A    between atoms: _513  and  _514
REMARK  207  A    between atoms: _514  and  _515
REMARK  208  A    between atoms: _524  and  _526
REMARK  209  A    between atoms: _526  and  _527
REMARK  210  A    between atoms: _526  and  _529
REMARK  211  A    between atoms: _529  and  _530
REMARK                            x       y       z     vdW  Elec       q    Type
REMARK                         _______ _______ _______ _____ _____    ______ ____
ROOT
ATOM      1  CA  ILE A   6      28.445  30.276  17.763  0.00  0.00    +0.149 C 
ENDROOT
BRANCH   1   2
ATOM      2  C   ILE A   6      29.126  28.914  17.850  0.00  0.00    +0.241 C 
ATOM      3  N   ILE A   7      28.930  28.231  18.976  0.00  0.00    -0.297 N 
ATOM      4  H   ILE A   7      28.503  28.710  19.795  0.00  0.00    +0.150 HD
ATOM      5  O   ILE A   6      29.817  28.496  16.917  0.00  0.00    -0.273 OA
BRANCH   3   6
ATOM      6  CA  ILE A   7      29.301  26.826  19.085  0.00  0.00    +0.149 C 
BRANCH   6   7
ATOM      7  C   ILE A   7      28.101  25.947  18.750  0.00  0.00    +0.241 C 
ATOM      8  O   ILE A   7      27.100  25.936  19.471  0.00  0.00    -0.273 OA
ATOM      9  N   GLY A   8      28.220  25.171  17.680  0.00  0.00    -0.295 N 
ATOM     10  H   GLY A   8      29.121  25.157  17.161  0.00  0.00    +0.150 HD
BRANCH   9  11
ATOM     11  CA  GLY A   8      27.120  24.340  17.217  0.00  0.00    +0.176 C 
BRANCH  11  12
ATOM     12  C   GLY A   8      27.255  22.882  17.606  0.00  0.00    +0.243 C 
ATOM     13  O   GLY A   8      28.191  22.479  18.299  0.00  0.00    -0.273 OA
ATOM     14  N   ARG A   9      26.336  22.074  17.101  0.00  0.00    -0.297 N 
ATOM     15  H   ARG A   9      25.675  22.440  16.386  0.00  0.00    +0.150 HD
BRANCH  14  16
ATOM     16  CA  ARG A   9      26.230  20.687  17.523  0.00  0.00    +0.149 C 
BRANCH  16  17
ATOM     17  C   ARG A   9      27.455  19.853  17.201  0.00  0.00    +0.241 C 
ATOM     18  O   ARG A   9      27.742  18.882  17.912  0.00  0.00    -0.273 OA
ATOM     19  N   ASN A  10      28.189  20.219  16.155  0.00  0.00    -0.298 N 
ATOM     20  H   ASN A  10      27.925  21.053  15.593  0.00  0.00    +0.150 HD
BRANCH  19  21
ATOM     21  CA  ASN A  10      29.374  19.434  15.803  0.00  0.00    +0.146 C 
BRANCH  21  22
ATOM     22  C   ASN A  10      30.366  19.394  16.965  0.00  0.00    +0.227 C 
ATOM     23  O   ASN A  10      30.984  18.360  17.203  0.00  0.00    -0.286 OA
ENDBRANCH  21  22
BRANCH  21  24
ATOM     24  CB  ASN A  10      30.037  19.924  14.522  0.00  0.00    +0.112 C 
BRANCH  24  25
ATOM     25  CG  ASN A  10      30.686  21.282  14.671  0.00  0.00    +0.222 C 
ATOM     26  OD1 ASN A  10      30.056  22.221  15.140  0.00  0.00    -0.275 OA
ATOM     27  ND2 ASN A  10      31.944  21.398  14.235  0.00  0.00    -0.329 N 
ATOM     28 HD21 ASN A  10      32.430  22.316  14.286  0.00  0.00    +0.145 HD
ATOM     29 HD22 ASN A  10      32.437  20.570  13.844  0.00  0.00    +0.145 HD
ENDBRANCH  24  25
ENDBRANCH  21  24
ENDBRANCH  19  21
ENDBRANCH  16  17
BRANCH  16  30
ATOM     30  CB  ARG A   9      24.989  20.030  16.932  0.00  0.00    +0.033 C 
BRANCH  30  31
ATOM     31  CG  ARG A   9      23.708  20.616  17.453  0.00  0.00    +0.045 C 
BRANCH  31  32
ATOM     32  CD  ARG A   9      22.493  19.786  17.053  0.00  0.00    +0.174 C 
BRANCH  32  33
ATOM     33  NE  ARG A   9      22.337  19.769  15.599  0.00  0.00    -0.265 N 
ATOM     34  HE  ARG A   9      21.927  20.617  15.158  0.00  0.00    +0.259 HD
ATOM     35  CZ  ARG A   9      22.672  18.768  14.789  0.00  0.00    +0.342 C 
ATOM     36  NH2 ARG A   9      23.177  17.622  15.245  0.00  0.00    -0.292 N 
ATOM     37 HH21 ARG A   9      23.321  17.487  16.266  0.00  0.00    +0.255 HD
ATOM     38 HH22 ARG A   9      23.427  16.863  14.580  0.00  0.00    +0.255 HD
ATOM     39  NH1 ARG A   9      22.483  18.915  13.484  0.00  0.00    -0.292 N 
ATOM     40 HH11 ARG A   9      22.080  19.799  13.113  0.00  0.00    +0.255 HD
ATOM     41 HH12 ARG A   9      22.737  18.146  12.832  0.00  0.00    +0.255 HD
ENDBRANCH  32  33
ENDBRANCH  31  32
ENDBRANCH  30  31
ENDBRANCH  16  30
ENDBRANCH  14  16
ENDBRANCH  11  12
ENDBRANCH   9  11
ENDBRANCH   6   7
BRANCH   6  42
ATOM     42  CB  ILE A   7      29.802  26.467  20.500  0.00  0.00    +0.027 C 
ATOM     43  CG2 ILE A   7      30.203  24.983  20.540  0.00  0.00    +0.002 C 
BRANCH  42  44
ATOM     44  CG1 ILE A   7      30.943  27.401  20.943  0.00  0.00    +0.002 C 
ATOM     45  CD1 ILE A   7      32.170  27.439  20.001  0.00  0.00    +0.000 C 
ENDBRANCH  42  44
ENDBRANCH   6  42
ENDBRANCH   3   6
ENDBRANCH   1   2
BRANCH   1  48
ATOM     46  C   ASN A   5      29.570  32.323  18.456  0.00  0.00    +0.241 C 
ATOM     47  O   ASN A   5      28.951  32.395  19.510  0.00  0.00    -0.273 OA
ATOM     48  N   ILE A   6      29.430  31.325  17.589  0.00  0.00    -0.297 N 
ATOM     49  H   ILE A   6      30.050  31.296  16.755  0.00  0.00    +0.150 HD
BRANCH  46  50
ATOM     50  CA  ASN A   5      30.541  33.422  18.065  0.00  0.00    +0.158 C 
BRANCH  50  52
ATOM     51  C   VAL A   4      28.934  35.122  17.425  0.00  0.00    +0.241 C 
ATOM     52  N   ASN A   5      29.887  34.713  18.251  0.00  0.00    -0.297 N 
ATOM     53  H   ASN A   5      30.173  35.322  19.044  0.00  0.00    +0.150 HD
ATOM     54  O   VAL A   4      28.636  34.513  16.402  0.00  0.00    -0.273 OA
BRANCH  51  55
ATOM     55  CA  VAL A   4      28.200  36.405  17.810  0.00  0.00    +0.149 C 
BRANCH  55  58
ATOM     56  C   PRO A   3      27.770  38.452  16.559  0.00  0.00    +0.241 C 
ATOM     57  O   PRO A   3      28.082  39.186  17.498  0.00  0.00    -0.273 OA
ATOM     58  N   VAL A   4      27.827  37.123  16.612  0.00  0.00    -0.297 N 
ATOM     59  H   VAL A   4      27.594  36.579  15.757  0.00  0.00    +0.150 HD
BRANCH  56  62
ATOM     60  C   THR A   2      28.385  37.781  13.531  0.00  0.00    +0.246 C 
ATOM     61  N   PRO A   3      27.238  38.126  14.142  0.00  0.00    -0.272 N 
ATOM     62  CA  PRO A   3      27.279  39.056  15.262  0.00  0.00    +0.152 C 
ATOM     63  CB  PRO A   3      25.816  39.491  15.399  0.00  0.00    +0.031 C 
ATOM     64  CG  PRO A   3      25.051  38.339  14.917  0.00  0.00    +0.024 C 
ATOM     65  CD  PRO A   3      25.858  37.730  13.813  0.00  0.00    +0.094 C 
ATOM     66  O   THR A   2      29.467  38.270  13.854  0.00  0.00    -0.273 OA
BRANCH  60  67
ATOM     67  CA  THR A   2      28.305  36.771  12.381  0.00  0.00    +0.176 C 
BRANCH  67  69
ATOM     68  C   PRO A   1      29.065  37.168  10.090  0.00  0.00    +0.239 C 
ATOM     69  N   THR A   2      29.321  37.092  11.389  0.00  0.00    -0.295 N 
ATOM     70  H   THR A   2      30.293  37.270  11.714  0.00  0.00    +0.150 HD
ATOM     71  O   PRO A   1      27.952  36.990   9.609  0.00  0.00    -0.274 OA
BRANCH  68  73
ATOM     72  N   PRO A   1      31.007  36.433   8.651  0.00  0.00    -0.210 NA
ATOM     73  CA  PRO A   1      30.257  37.553   9.215  0.00  0.00    +0.149 C 
ATOM     74  CB  PRO A   1      29.832  38.361   7.978  0.00  0.00    +0.028 C 
ATOM     75  CG  PRO A   1      29.862  37.407   6.849  0.00  0.00    +0.021 C 
ATOM     76  CD  PRO A   1      30.806  36.300   7.193  0.00  0.00    +0.089 C 
ENDBRANCH  68  73
ENDBRANCH  67  69
BRANCH  67  77
ATOM     77  CB  THR A   2      28.491  35.330  12.903  0.00  0.00    +0.137 C 
ATOM     78  CG2 THR A   2      29.920  35.085  13.408  0.00  0.00    +0.034 C 
BRANCH  77  79
ATOM     79  OG1 THR A   2      27.567  35.089  13.971  0.00  0.00    -0.382 OA
ATOM     80  HG1 THR A   2      27.737  35.732  14.704  0.00  0.00    +0.210 HD
ENDBRANCH  77  79
ENDBRANCH  67  77
ENDBRANCH  60  67
ENDBRANCH  56  62
ENDBRANCH  55  58
BRANCH  55  81
ATOM     81  CB  VAL A   4      26.947  36.039  18.618  0.00  0.00    +0.027 C 
ATOM     82  CG2 VAL A   4      27.326  35.328  19.905  0.00  0.00    +0.002 C 
ATOM     83  CG1 VAL A   4      25.991  35.177  17.775  0.00  0.00    +0.002 C 
ENDBRANCH  55  81
ENDBRANCH  51  55
ENDBRANCH  50  52
BRANCH  50  84
ATOM     84  CB  ASN A   5      31.809  33.317  18.905  0.00  0.00    +0.114 C 
BRANCH  84  85
ATOM     85  CG  ASN A   5      32.851  34.308  18.488  0.00  0.00    +0.222 C 
ATOM     86  ND2 ASN A   5      33.415  35.029  19.453  0.00  0.00    -0.329 N 
ATOM     87 HD21 ASN A   5      33.135  34.882  20.444  0.00  0.00    +0.145 HD
ATOM     88 HD22 ASN A   5      34.136  35.740  19.217  0.00  0.00    +0.145 HD
ATOM     89  OD1 ASN A   5      33.140  34.436  17.300  0.00  0.00    -0.275 OA
ENDBRANCH  84  85
ENDBRANCH  50  84
ENDBRANCH  46  50
ENDBRANCH   1  48
BRANCH   1  90
ATOM     90  CB  ILE A   6      27.437  30.272  16.591  0.00  0.00    +0.027 C 
ATOM     91  CG2 ILE A   6      26.548  29.053  16.645  0.00  0.00    +0.002 C 
BRANCH  90  92
ATOM     92  CG1 ILE A   6      26.572  31.535  16.617  0.00  0.00    +0.002 C 
ATOM     93  CD1 ILE A   6      25.864  31.796  15.316  0.00  0.00    +0.000 C 
ENDBRANCH  90  92
ENDBRANCH   1  90
TORSDOF 33
REMARK  Name = ../refined-set-2016/3el1/3el1_pocket.pdb
REMARK  211 active torsions:
REMARK  status: ('A' for Active; 'I' for Inactive)
REMARK    1  A    between atoms: _1  and  _3
REMARK    2  A    between atoms: _3  and  _4
REMARK    3  A    between atoms: _3  and  _6
REMARK    4  A    between atoms: _6  and  _7
REMARK    5  A    between atoms: _7  and  _8
REMARK    6  A    between atoms: _8  and  _9
REMARK    7  A    between atoms: _18  and  _20
REMARK    8  A    between atoms: _20  and  _21
REMARK    9  A    between atoms: _20  and  _23
REMARK   10  A    between atoms: _23  and  _24
REMARK   11  A    between atoms: _27  and  _29
REMARK   12  A    between atoms: _29  and  _30
REMARK   13  A    between atoms: _29  and  _32
REMARK   14  A    between atoms: _32  and  _33
REMARK   15  A    between atoms: _36  and  _38
REMARK   16  A    between atoms: _38  and  _39
REMARK   17  A    between atoms: _38  and  _41
REMARK   18  A    between atoms: _41  and  _42
REMARK   19  A    between atoms: _45  and  _47
REMARK   20  A    between atoms: _47  and  _48
REMARK   21  A    between atoms: _47  and  _50
REMARK   22  A    between atoms: _50  and  _51
REMARK   23  A    between atoms: _54  and  _56
REMARK   24  A    between atoms: _56  and  _57
REMARK   25  A    between atoms: _59  and  _61
REMARK   26  A    between atoms: _61  and  _62
REMARK   27  A    between atoms: _65  and  _67
REMARK   28  A    between atoms: _67  and  _68
REMARK   29  A    between atoms: _67  and  _70
REMARK   30  A    between atoms: _70  and  _71
REMARK   31  A    between atoms: _74  and  _76
REMARK   32  A    between atoms: _76  and  _77
REMARK   33  A    between atoms: _76  and  _79
REMARK   34  A    between atoms: _79  and  _80
REMARK   35  A    between atoms: _83  and  _85
REMARK   36  A    between atoms: _85  and  _86
REMARK   37  A    between atoms: _85  and  _88
REMARK   38  A    between atoms: _88  and  _89
REMARK   39  A    between atoms: _92  and  _94
REMARK   40  A    between atoms: _94  and  _95
REMARK   41  A    between atoms: _94  and  _97
REMARK   42  A    between atoms: _100  and  _102
REMARK   43  A    between atoms: _102  and  _103
REMARK   44  A    between atoms: _102  and  _105
REMARK   45  A    between atoms: _105  and  _106
REMARK   46  A    between atoms: _106  and  _107
REMARK   47  A    between atoms: _109  and  _111
REMARK   48  A    between atoms: _111  and  _112
REMARK   49  A    between atoms: _111  and  _114
REMARK   50  A    between atoms: _114  and  _115
REMARK   51  A    between atoms: _118  and  _120
REMARK   52  A    between atoms: _120  and  _121
REMARK   53  A    between atoms: _123  and  _125
REMARK   54  A    between atoms: _125  and  _126
REMARK   55  A    between atoms: _128  and  _130
REMARK   56  A    between atoms: _130  and  _131
REMARK   57  A    between atoms: _130  and  _133
REMARK   58  A    between atoms: _133  and  _134
REMARK   59  A    between atoms: _137  and  _139
REMARK   60  A    between atoms: _139  and  _140
REMARK   61  A    between atoms: _142  and  _144
REMARK   62  A    between atoms: _144  and  _145
REMARK   63  A    between atoms: _147  and  _149
REMARK   64  A    between atoms: _149  and  _150
REMARK   65  A    between atoms: _149  and  _152
REMARK   66  A    between atoms: _152  and  _153
REMARK   67  A    between atoms: _159  and  _161
REMARK   68  A    between atoms: _161  and  _162
REMARK   69  A    between atoms: _161  and  _164
REMARK   70  A    between atoms: _164  and  _165
REMARK   71  A    between atoms: _168  and  _170
REMARK   72  A    between atoms: _170  and  _171
REMARK   73  A    between atoms: _170  and  _173
REMARK   74  A    between atoms: _176  and  _178
REMARK   75  A    between atoms: _178  and  _179
REMARK   76  A    between atoms: _178  and  _181
REMARK   77  A    between atoms: _181  and  _182
REMARK   78  A    between atoms: _186  and  _187
REMARK   79  A    between atoms: _192  and  _194
REMARK   80  A    between atoms: _194  and  _195
REMARK   81  A    between atoms: _194  and  _197
REMARK   82  A    between atoms: _197  and  _198
REMARK   83  A    between atoms: _202  and  _203
REMARK   84  A    between atoms: _208  and  _210
REMARK   85  A    between atoms: _210  and  _211
REMARK   86  A    between atoms: _210  and  _213
REMARK   87  A    between atoms: _216  and  _218
REMARK   88  A    between atoms: _218  and  _219
REMARK   89  A    between atoms: _218  and  _221
REMARK   90  A    between atoms: _221  and  _222
REMARK   91  A    between atoms: _227  and  _229
REMARK   92  A    between atoms: _229  and  _230
REMARK   93  A    between atoms: _229  and  _232
REMARK   94  A    between atoms: _232  and  _233
REMARK   95  A    between atoms: _236  and  _238
REMARK   96  A    between atoms: _238  and  _239
REMARK   97  A    between atoms: _238  and  _241
REMARK   98  A    between atoms: _241  and  _242
REMARK   99  A    between atoms: _245  and  _247
REMARK  100  A    between atoms: _247  and  _248
REMARK  101  A    between atoms: _250  and  _252
REMARK  102  A    between atoms: _252  and  _253
REMARK  103  A    between atoms: _252  and  _255
REMARK  104  A    between atoms: _255  and  _256
REMARK  105  A    between atoms: _256  and  _257
REMARK  106  A    between atoms: _257  and  _258
REMARK  107  A    between atoms: _267  and  _269
REMARK  108  A    between atoms: _269  and  _270
REMARK  109  A    between atoms: _269  and  _272
REMARK  110  A    between atoms: _272  and  _273
REMARK  111  A    between atoms: _273  and  _274
REMARK  112  A    between atoms: _274  and  _275
REMARK  113  A    between atoms: _284  and  _286
REMARK  114  A    between atoms: _286  and  _287
REMARK  115  A    between atoms: _286  and  _289
REMARK  116  A    between atoms: _289  and  _290
REMARK  117  A    between atoms: _293  and  _295
REMARK  118  A    between atoms: _295  and  _296
REMARK  119  A    between atoms: _295  and  _298
REMARK  120  A    between atoms: _298  and  _299
REMARK  121  A    between atoms: _302  and  _304
REMARK  122  A    between atoms: _304  and  _305
REMARK  123  A    between atoms: _304  and  _307
REMARK  124  A    between atoms: _307  and  _308
REMARK  125  A    between atoms: _311  and  _313
REMARK  126  A    between atoms: _313  and  _314
REMARK  127  A    between atoms: _313  and  _316
REMARK  128  A    between atoms: _316  and  _317
REMARK  129  A    between atoms: _320  and  _322
REMARK  130  A    between atoms: _322  and  _323
REMARK  131  A    between atoms: _325  and  _327
REMARK  132  A    between atoms: _327  and  _328
REMARK  133  A    between atoms: _331  and  _333
REMARK  134  A    between atoms: _333  and  _334
REMARK  135  A    between atoms: _333  and  _336
REMARK  136  A    between atoms: _336  and  _337
REMARK  137  A    between atoms: _340  and  _342
REMARK  138  A    between atoms: _342  and  _343
REMARK  139  A    between atoms: _342  and  _345
REMARK  140  A    between atoms: _345  and  _346
REMARK  141  A    between atoms: _349  and  _351
REMARK  142  A    between atoms: _351  and  _352
REMARK  143  A    between atoms: _351  and  _354
REMARK  144  A    between atoms: _354  and  _355
REMARK  145  A    between atoms: _358  and  _360
REMARK  146  A    between atoms: _360  and  _361
REMARK  147  A    between atoms: _360  and  _363
REMARK  148  A    between atoms: _366  and  _368
REMARK  149  A    between atoms: _368  and  _369
REMARK  150  A    between atoms: _368  and  _371
REMARK  151  A    between atoms: _371  and  _372
REMARK  152  A    between atoms: _375  and  _377
REMARK  153  A    between atoms: _377  and  _378
REMARK  154  A    between atoms: _380  and  _382
REMARK  155  A    between atoms: _382  and  _383
REMARK  156  A    between atoms: _385  and  _387
REMARK  157  A    between atoms: _387  and  _388
REMARK  158  A    between atoms: _387  and  _390
REMARK  159  A    between atoms: _390  and  _391
REMARK  160  A    between atoms: _394  and  _396
REMARK  161  A    between atoms: _396  and  _397
REMARK  162  A    between atoms: _399  and  _401
REMARK  163  A    between atoms: _401  and  _402
REMARK  164  A    between atoms: _404  and  _406
REMARK  165  A    between atoms: _406  and  _407
REMARK  166  A    between atoms: _406  and  _409
REMARK  167  A    between atoms: _409  and  _410
REMARK  168  A    between atoms: _416  and  _418
REMARK  169  A    between atoms: _418  and  _419
REMARK  170  A    between atoms: _418  and  _421
REMARK  171  A    between atoms: _421  and  _422
REMARK  172  A    between atoms: _425  and  _427
REMARK  173  A    between atoms: _427  and  _428
REMARK  174  A    between atoms: _427  and  _430
REMARK  175  A    between atoms: _433  and  _435
REMARK  176  A    between atoms: _435  and  _436
REMARK  177  A    between atoms: _435  and  _438
REMARK  178  A    between atoms: _438  and  _439
REMARK  179  A    between atoms: _443  and  _444
REMARK  180  A    between atoms: _449  and  _451
REMARK  181  A    between atoms: _451  and  _452
REMARK  182  A    between atoms: _451  and  _454
REMARK  183  A    between atoms: _454  and  _455
REMARK  184  A    between atoms: _459  and  _460
REMARK  185  A    between atoms: _465  and  _467
REMARK  186  A    between atoms: _467  and  _468
REMARK  187  A    between atoms: _467  and  _470
REMARK  188  A    between atoms: _473  and  _475
REMARK  189  A    between atoms: _475  and  _476
REMARK  190  A    between atoms: _475  and  _478
REMARK  191  A    between atoms: _478  and  _479
REMARK  192  A    between atoms: _484  and  _486
REMARK  193  A    between atoms: _486  and  _487
REMARK  194  A    between atoms: _486  and  _489
REMARK  195  A    between atoms: _489  and  _490
REMARK  196  A    between atoms: _493  and  _495
REMARK  197  A    between atoms: _495  and  _496
REMARK  198  A    between atoms: _495  and  _498
REMARK  199  A    between atoms: _498  and  _499
REMARK  200  A    between atoms: _502  and  _504
REMARK  201  A    between atoms: _504  and  _505
REMARK  202  A    between atoms: _507  and  _509
REMARK  203  A    between atoms: _509  and  _510
REMARK  204  A    between atoms: _509  and  _512
REMARK  205  A    between atoms: _512  and  _513
REMARK  206  A    between atoms: _513  and  _514
REMARK  207  A    between atoms: _514  and  _515
REMARK  208  A    between atoms: _524  and  _526
REMARK  209  A    between atoms: _526  and  _527
REMARK  210  A    between atoms: _526  and  _529
REMARK  211  A    between atoms: _529  and  _530
REMARK                            x       y       z     vdW  Elec       q    Type
REMARK                         _______ _______ _______ _____ _____    ______ ____
ROOT
ATOM      1  O   HOH     1      20.446  32.720  23.147  0.00  0.00    +0.000 OA
ENDROOT
TORSDOF 0
REMARK  Name = ../refined-set-2016/3el1/3el1_pocket.pdb
REMARK  211 active torsions:
REMARK  status: ('A' for Active; 'I' for Inactive)
REMARK    1  A    between atoms: _1  and  _3
REMARK    2  A    between atoms: _3  and  _4
REMARK    3  A    between atoms: _3  and  _6
REMARK    4  A    between atoms: _6  and  _7
REMARK    5  A    between atoms: _7  and  _8
REMARK    6  A    between atoms: _8  and  _9
REMARK    7  A    between atoms: _18  and  _20
REMARK    8  A    between atoms: _20  and  _21
REMARK    9  A    between atoms: _20  and  _23
REMARK   10  A    between atoms: _23  and  _24
REMARK   11  A    between atoms: _27  and  _29
REMARK   12  A    between atoms: _29  and  _30
REMARK   13  A    between atoms: _29  and  _32
REMARK   14  A    between atoms: _32  and  _33
REMARK   15  A    between atoms: _36  and  _38
REMARK   16  A    between atoms: _38  and  _39
REMARK   17  A    between atoms: _38  and  _41
REMARK   18  A    between atoms: _41  and  _42
REMARK   19  A    between atoms: _45  and  _47
REMARK   20  A    between atoms: _47  and  _48
REMARK   21  A    between atoms: _47  and  _50
REMARK   22  A    between atoms: _50  and  _51
REMARK   23  A    between atoms: _54  and  _56
REMARK   24  A    between atoms: _56  and  _57
REMARK   25  A    between atoms: _59  and  _61
REMARK   26  A    between atoms: _61  and  _62
REMARK   27  A    between atoms: _65  and  _67
REMARK   28  A    between atoms: _67  and  _68
REMARK   29  A    between atoms: _67  and  _70
REMARK   30  A    between atoms: _70  and  _71
REMARK   31  A    between atoms: _74  and  _76
REMARK   32  A    between atoms: _76  and  _77
REMARK   33  A    between atoms: _76  and  _79
REMARK   34  A    between atoms: _79  and  _80
REMARK   35  A    between atoms: _83  and  _85
REMARK   36  A    between atoms: _85  and  _86
REMARK   37  A    between atoms: _85  and  _88
REMARK   38  A    between atoms: _88  and  _89
REMARK   39  A    between atoms: _92  and  _94
REMARK   40  A    between atoms: _94  and  _95
REMARK   41  A    between atoms: _94  and  _97
REMARK   42  A    between atoms: _100  and  _102
REMARK   43  A    between atoms: _102  and  _103
REMARK   44  A    between atoms: _102  and  _105
REMARK   45  A    between atoms: _105  and  _106
REMARK   46  A    between atoms: _106  and  _107
REMARK   47  A    between atoms: _109  and  _111
REMARK   48  A    between atoms: _111  and  _112
REMARK   49  A    between atoms: _111  and  _114
REMARK   50  A    between atoms: _114  and  _115
REMARK   51  A    between atoms: _118  and  _120
REMARK   52  A    between atoms: _120  and  _121
REMARK   53  A    between atoms: _123  and  _125
REMARK   54  A    between atoms: _125  and  _126
REMARK   55  A    between atoms: _128  and  _130
REMARK   56  A    between atoms: _130  and  _131
REMARK   57  A    between atoms: _130  and  _133
REMARK   58  A    between atoms: _133  and  _134
REMARK   59  A    between atoms: _137  and  _139
REMARK   60  A    between atoms: _139  and  _140
REMARK   61  A    between atoms: _142  and  _144
REMARK   62  A    between atoms: _144  and  _145
REMARK   63  A    between atoms: _147  and  _149
REMARK   64  A    between atoms: _149  and  _150
REMARK   65  A    between atoms: _149  and  _152
REMARK   66  A    between atoms: _152  and  _153
REMARK   67  A    between atoms: _159  and  _161
REMARK   68  A    between atoms: _161  and  _162
REMARK   69  A    between atoms: _161  and  _164
REMARK   70  A    between atoms: _164  and  _165
REMARK   71  A    between atoms: _168  and  _170
REMARK   72  A    between atoms: _170  and  _171
REMARK   73  A    between atoms: _170  and  _173
REMARK   74  A    between atoms: _176  and  _178
REMARK   75  A    between atoms: _178  and  _179
REMARK   76  A    between atoms: _178  and  _181
REMARK   77  A    between atoms: _181  and  _182
REMARK   78  A    between atoms: _186  and  _187
REMARK   79  A    between atoms: _192  and  _194
REMARK   80  A    between atoms: _194  and  _195
REMARK   81  A    between atoms: _194  and  _197
REMARK   82  A    between atoms: _197  and  _198
REMARK   83  A    between atoms: _202  and  _203
REMARK   84  A    between atoms: _208  and  _210
REMARK   85  A    between atoms: _210  and  _211
REMARK   86  A    between atoms: _210  and  _213
REMARK   87  A    between atoms: _216  and  _218
REMARK   88  A    between atoms: _218  and  _219
REMARK   89  A    between atoms: _218  and  _221
REMARK   90  A    between atoms: _221  and  _222
REMARK   91  A    between atoms: _227  and  _229
REMARK   92  A    between atoms: _229  and  _230
REMARK   93  A    between atoms: _229  and  _232
REMARK   94  A    between atoms: _232  and  _233
REMARK   95  A    between atoms: _236  and  _238
REMARK   96  A    between atoms: _238  and  _239
REMARK   97  A    between atoms: _238  and  _241
REMARK   98  A    between atoms: _241  and  _242
REMARK   99  A    between atoms: _245  and  _247
REMARK  100  A    between atoms: _247  and  _248
REMARK  101  A    between atoms: _250  and  _252
REMARK  102  A    between atoms: _252  and  _253
REMARK  103  A    between atoms: _252  and  _255
REMARK  104  A    between atoms: _255  and  _256
REMARK  105  A    between atoms: _256  and  _257
REMARK  106  A    between atoms: _257  and  _258
REMARK  107  A    between atoms: _267  and  _269
REMARK  108  A    between atoms: _269  and  _270
REMARK  109  A    between atoms: _269  and  _272
REMARK  110  A    between atoms: _272  and  _273
REMARK  111  A    between atoms: _273  and  _274
REMARK  112  A    between atoms: _274  and  _275
REMARK  113  A    between atoms: _284  and  _286
REMARK  114  A    between atoms: _286  and  _287
REMARK  115  A    between atoms: _286  and  _289
REMARK  116  A    between atoms: _289  and  _290
REMARK  117  A    between atoms: _293  and  _295
REMARK  118  A    between atoms: _295  and  _296
REMARK  119  A    between atoms: _295  and  _298
REMARK  120  A    between atoms: _298  and  _299
REMARK  121  A    between atoms: _302  and  _304
REMARK  122  A    between atoms: _304  and  _305
REMARK  123  A    between atoms: _304  and  _307
REMARK  124  A    between atoms: _307  and  _308
REMARK  125  A    between atoms: _311  and  _313
REMARK  126  A    between atoms: _313  and  _314
REMARK  127  A    between atoms: _313  and  _316
REMARK  128  A    between atoms: _316  and  _317
REMARK  129  A    between atoms: _320  and  _322
REMARK  130  A    between atoms: _322  and  _323
REMARK  131  A    between atoms: _325  and  _327
REMARK  132  A    between atoms: _327  and  _328
REMARK  133  A    between atoms: _331  and  _333
REMARK  134  A    between atoms: _333  and  _334
REMARK  135  A    between atoms: _333  and  _336
REMARK  136  A    between atoms: _336  and  _337
REMARK  137  A    between atoms: _340  and  _342
REMARK  138  A    between atoms: _342  and  _343
REMARK  139  A    between atoms: _342  and  _345
REMARK  140  A    between atoms: _345  and  _346
REMARK  141  A    between atoms: _349  and  _351
REMARK  142  A    between atoms: _351  and  _352
REMARK  143  A    between atoms: _351  and  _354
REMARK  144  A    between atoms: _354  and  _355
REMARK  145  A    between atoms: _358  and  _360
REMARK  146  A    between atoms: _360  and  _361
REMARK  147  A    between atoms: _360  and  _363
REMARK  148  A    between atoms: _366  and  _368
REMARK  149  A    between atoms: _368  and  _369
REMARK  150  A    between atoms: _368  and  _371
REMARK  151  A    between atoms: _371  and  _372
REMARK  152  A    between atoms: _375  and  _377
REMARK  153  A    between atoms: _377  and  _378
REMARK  154  A    between atoms: _380  and  _382
REMARK  155  A    between atoms: _382  and  _383
REMARK  156  A    between atoms: _385  and  _387
REMARK  157  A    between atoms: _387  and  _388
REMARK  158  A    between atoms: _387  and  _390
REMARK  159  A    between atoms: _390  and  _391
REMARK  160  A    between atoms: _394  and  _396
REMARK  161  A    between atoms: _396  and  _397
REMARK  162  A    between atoms: _399  and  _401
REMARK  163  A    between atoms: _401  and  _402
REMARK  164  A    between atoms: _404  and  _406
REMARK  165  A    between atoms: _406  and  _407
REMARK  166  A    between atoms: _406  and  _409
REMARK  167  A    between atoms: _409  and  _410
REMARK  168  A    between atoms: _416  and  _418
REMARK  169  A    between atoms: _418  and  _419
REMARK  170  A    between atoms: _418  and  _421
REMARK  171  A    between atoms: _421  and  _422
REMARK  172  A    between atoms: _425  and  _427
REMARK  173  A    between atoms: _427  and  _428
REMARK  174  A    between atoms: _427  and  _430
REMARK  175  A    between atoms: _433  and  _435
REMARK  176  A    between atoms: _435  and  _436
REMARK  177  A    between atoms: _435  and  _438
REMARK  178  A    between atoms: _438  and  _439
REMARK  179  A    between atoms: _443  and  _444
REMARK  180  A    between atoms: _449  and  _451
REMARK  181  A    between atoms: _451  and  _452
REMARK  182  A    between atoms: _451  and  _454
REMARK  183  A    between atoms: _454  and  _455
REMARK  184  A    between atoms: _459  and  _460
REMARK  185  A    between atoms: _465  and  _467
REMARK  186  A    between atoms: _467  and  _468
REMARK  187  A    between atoms: _467  and  _470
REMARK  188  A    between atoms: _473  and  _475
REMARK  189  A    between atoms: _475  and  _476
REMARK  190  A    between atoms: _475  and  _478
REMARK  191  A    between atoms: _478  and  _479
REMARK  192  A    between atoms: _484  and  _486
REMARK  193  A    between atoms: _486  and  _487
REMARK  194  A    between atoms: _486  and  _489
REMARK  195  A    between atoms: _489  and  _490
REMARK  196  A    between atoms: _493  and  _495
REMARK  197  A    between atoms: _495  and  _496
REMARK  198  A    between atoms: _495  and  _498
REMARK  199  A    between atoms: _498  and  _499
REMARK  200  A    between atoms: _502  and  _504
REMARK  201  A    between atoms: _504  and  _505
REMARK  202  A    between atoms: _507  and  _509
REMARK  203  A    between atoms: _509  and  _510
REMARK  204  A    between atoms: _509  and  _512
REMARK  205  A    between atoms: _512  and  _513
REMARK  206  A    between atoms: _513  and  _514
REMARK  207  A    between atoms: _514  and  _515
REMARK  208  A    between atoms: _524  and  _526
REMARK  209  A    between atoms: _526  and  _527
REMARK  210  A    between atoms: _526  and  _529
REMARK  211  A    between atoms: _529  and  _530
REMARK                            x       y       z     vdW  Elec       q    Type
REMARK                         _______ _______ _______ _____ _____    ______ ____
ROOT
ATOM      1  O   HOH     1      20.028  32.362  11.856  0.00  0.00    +0.000 OA
ENDROOT
TORSDOF 0
REMARK  Name = ../refined-set-2016/3el1/3el1_pocket.pdb
REMARK  211 active torsions:
REMARK  status: ('A' for Active; 'I' for Inactive)
REMARK    1  A    between atoms: _1  and  _3
REMARK    2  A    between atoms: _3  and  _4
REMARK    3  A    between atoms: _3  and  _6
REMARK    4  A    between atoms: _6  and  _7
REMARK    5  A    between atoms: _7  and  _8
REMARK    6  A    between atoms: _8  and  _9
REMARK    7  A    between atoms: _18  and  _20
REMARK    8  A    between atoms: _20  and  _21
REMARK    9  A    between atoms: _20  and  _23
REMARK   10  A    between atoms: _23  and  _24
REMARK   11  A    between atoms: _27  and  _29
REMARK   12  A    between atoms: _29  and  _30
REMARK   13  A    between atoms: _29  and  _32
REMARK   14  A    between atoms: _32  and  _33
REMARK   15  A    between atoms: _36  and  _38
REMARK   16  A    between atoms: _38  and  _39
REMARK   17  A    between atoms: _38  and  _41
REMARK   18  A    between atoms: _41  and  _42
REMARK   19  A    between atoms: _45  and  _47
REMARK   20  A    between atoms: _47  and  _48
REMARK   21  A    between atoms: _47  and  _50
REMARK   22  A    between atoms: _50  and  _51
REMARK   23  A    between atoms: _54  and  _56
REMARK   24  A    between atoms: _56  and  _57
REMARK   25  A    between atoms: _59  and  _61
REMARK   26  A    between atoms: _61  and  _62
REMARK   27  A    between atoms: _65  and  _67
REMARK   28  A    between atoms: _67  and  _68
REMARK   29  A    between atoms: _67  and  _70
REMARK   30  A    between atoms: _70  and  _71
REMARK   31  A    between atoms: _74  and  _76
REMARK   32  A    between atoms: _76  and  _77
REMARK   33  A    between atoms: _76  and  _79
REMARK   34  A    between atoms: _79  and  _80
REMARK   35  A    between atoms: _83  and  _85
REMARK   36  A    between atoms: _85  and  _86
REMARK   37  A    between atoms: _85  and  _88
REMARK   38  A    between atoms: _88  and  _89
REMARK   39  A    between atoms: _92  and  _94
REMARK   40  A    between atoms: _94  and  _95
REMARK   41  A    between atoms: _94  and  _97
REMARK   42  A    between atoms: _100  and  _102
REMARK   43  A    between atoms: _102  and  _103
REMARK   44  A    between atoms: _102  and  _105
REMARK   45  A    between atoms: _105  and  _106
REMARK   46  A    between atoms: _106  and  _107
REMARK   47  A    between atoms: _109  and  _111
REMARK   48  A    between atoms: _111  and  _112
REMARK   49  A    between atoms: _111  and  _114
REMARK   50  A    between atoms: _114  and  _115
REMARK   51  A    between atoms: _118  and  _120
REMARK   52  A    between atoms: _120  and  _121
REMARK   53  A    between atoms: _123  and  _125
REMARK   54  A    between atoms: _125  and  _126
REMARK   55  A    between atoms: _128  and  _130
REMARK   56  A    between atoms: _130  and  _131
REMARK   57  A    between atoms: _130  and  _133
REMARK   58  A    between atoms: _133  and  _134
REMARK   59  A    between atoms: _137  and  _139
REMARK   60  A    between atoms: _139  and  _140
REMARK   61  A    between atoms: _142  and  _144
REMARK   62  A    between atoms: _144  and  _145
REMARK   63  A    between atoms: _147  and  _149
REMARK   64  A    between atoms: _149  and  _150
REMARK   65  A    between atoms: _149  and  _152
REMARK   66  A    between atoms: _152  and  _153
REMARK   67  A    between atoms: _159  and  _161
REMARK   68  A    between atoms: _161  and  _162
REMARK   69  A    between atoms: _161  and  _164
REMARK   70  A    between atoms: _164  and  _165
REMARK   71  A    between atoms: _168  and  _170
REMARK   72  A    between atoms: _170  and  _171
REMARK   73  A    between atoms: _170  and  _173
REMARK   74  A    between atoms: _176  and  _178
REMARK   75  A    between atoms: _178  and  _179
REMARK   76  A    between atoms: _178  and  _181
REMARK   77  A    between atoms: _181  and  _182
REMARK   78  A    between atoms: _186  and  _187
REMARK   79  A    between atoms: _192  and  _194
REMARK   80  A    between atoms: _194  and  _195
REMARK   81  A    between atoms: _194  and  _197
REMARK   82  A    between atoms: _197  and  _198
REMARK   83  A    between atoms: _202  and  _203
REMARK   84  A    between atoms: _208  and  _210
REMARK   85  A    between atoms: _210  and  _211
REMARK   86  A    between atoms: _210  and  _213
REMARK   87  A    between atoms: _216  and  _218
REMARK   88  A    between atoms: _218  and  _219
REMARK   89  A    between atoms: _218  and  _221
REMARK   90  A    between atoms: _221  and  _222
REMARK   91  A    between atoms: _227  and  _229
REMARK   92  A    between atoms: _229  and  _230
REMARK   93  A    between atoms: _229  and  _232
REMARK   94  A    between atoms: _232  and  _233
REMARK   95  A    between atoms: _236  and  _238
REMARK   96  A    between atoms: _238  and  _239
REMARK   97  A    between atoms: _238  and  _241
REMARK   98  A    between atoms: _241  and  _242
REMARK   99  A    between atoms: _245  and  _247
REMARK  100  A    between atoms: _247  and  _248
REMARK  101  A    between atoms: _250  and  _252
REMARK  102  A    between atoms: _252  and  _253
REMARK  103  A    between atoms: _252  and  _255
REMARK  104  A    between atoms: _255  and  _256
REMARK  105  A    between atoms: _256  and  _257
REMARK  106  A    between atoms: _257  and  _258
REMARK  107  A    between atoms: _267  and  _269
REMARK  108  A    between atoms: _269  and  _270
REMARK  109  A    between atoms: _269  and  _272
REMARK  110  A    between atoms: _272  and  _273
REMARK  111  A    between atoms: _273  and  _274
REMARK  112  A    between atoms: _274  and  _275
REMARK  113  A    between atoms: _284  and  _286
REMARK  114  A    between atoms: _286  and  _287
REMARK  115  A    between atoms: _286  and  _289
REMARK  116  A    between atoms: _289  and  _290
REMARK  117  A    between atoms: _293  and  _295
REMARK  118  A    between atoms: _295  and  _296
REMARK  119  A    between atoms: _295  and  _298
REMARK  120  A    between atoms: _298  and  _299
REMARK  121  A    between atoms: _302  and  _304
REMARK  122  A    between atoms: _304  and  _305
REMARK  123  A    between atoms: _304  and  _307
REMARK  124  A    between atoms: _307  and  _308
REMARK  125  A    between atoms: _311  and  _313
REMARK  126  A    between atoms: _313  and  _314
REMARK  127  A    between atoms: _313  and  _316
REMARK  128  A    between atoms: _316  and  _317
REMARK  129  A    between atoms: _320  and  _322
REMARK  130  A    between atoms: _322  and  _323
REMARK  131  A    between atoms: _325  and  _327
REMARK  132  A    between atoms: _327  and  _328
REMARK  133  A    between atoms: _331  and  _333
REMARK  134  A    between atoms: _333  and  _334
REMARK  135  A    between atoms: _333  and  _336
REMARK  136  A    between atoms: _336  and  _337
REMARK  137  A    between atoms: _340  and  _342
REMARK  138  A    between atoms: _342  and  _343
REMARK  139  A    between atoms: _342  and  _345
REMARK  140  A    between atoms: _345  and  _346
REMARK  141  A    between atoms: _349  and  _351
REMARK  142  A    between atoms: _351  and  _352
REMARK  143  A    between atoms: _351  and  _354
REMARK  144  A    between atoms: _354  and  _355
REMARK  145  A    between atoms: _358  and  _360
REMARK  146  A    between atoms: _360  and  _361
REMARK  147  A    between atoms: _360  and  _363
REMARK  148  A    between atoms: _366  and  _368
REMARK  149  A    between atoms: _368  and  _369
REMARK  150  A    between atoms: _368  and  _371
REMARK  151  A    between atoms: _371  and  _372
REMARK  152  A    between atoms: _375  and  _377
REMARK  153  A    between atoms: _377  and  _378
REMARK  154  A    between atoms: _380  and  _382
REMARK  155  A    between atoms: _382  and  _383
REMARK  156  A    between atoms: _385  and  _387
REMARK  157  A    between atoms: _387  and  _388
REMARK  158  A    between atoms: _387  and  _390
REMARK  159  A    between atoms: _390  and  _391
REMARK  160  A    between atoms: _394  and  _396
REMARK  161  A    between atoms: _396  and  _397
REMARK  162  A    between atoms: _399  and  _401
REMARK  163  A    between atoms: _401  and  _402
REMARK  164  A    between atoms: _404  and  _406
REMARK  165  A    between atoms: _406  and  _407
REMARK  166  A    between atoms: _406  and  _409
REMARK  167  A    between atoms: _409  and  _410
REMARK  168  A    between atoms: _416  and  _418
REMARK  169  A    between atoms: _418  and  _419
REMARK  170  A    between atoms: _418  and  _421
REMARK  171  A    between atoms: _421  and  _422
REMARK  172  A    between atoms: _425  and  _427
REMARK  173  A    between atoms: _427  and  _428
REMARK  174  A    between atoms: _427  and  _430
REMARK  175  A    between atoms: _433  and  _435
REMARK  176  A    between atoms: _435  and  _436
REMARK  177  A    between atoms: _435  and  _438
REMARK  178  A    between atoms: _438  and  _439
REMARK  179  A    between atoms: _443  and  _444
REMARK  180  A    between atoms: _449  and  _451
REMARK  181  A    between atoms: _451  and  _452
REMARK  182  A    between atoms: _451  and  _454
REMARK  183  A    between atoms: _454  and  _455
REMARK  184  A    between atoms: _459  and  _460
REMARK  185  A    between atoms: _465  and  _467
REMARK  186  A    between atoms: _467  and  _468
REMARK  187  A    between atoms: _467  and  _470
REMARK  188  A    between atoms: _473  and  _475
REMARK  189  A    between atoms: _475  and  _476
REMARK  190  A    between atoms: _475  and  _478
REMARK  191  A    between atoms: _478  and  _479
REMARK  192  A    between atoms: _484  and  _486
REMARK  193  A    between atoms: _486  and  _487
REMARK  194  A    between atoms: _486  and  _489
REMARK  195  A    between atoms: _489  and  _490
REMARK  196  A    between atoms: _493  and  _495
REMARK  197  A    between atoms: _495  and  _496
REMARK  198  A    between atoms: _495  and  _498
REMARK  199  A    between atoms: _498  and  _499
REMARK  200  A    between atoms: _502  and  _504
REMARK  201  A    between atoms: _504  and  _505
REMARK  202  A    between atoms: _507  and  _509
REMARK  203  A    between atoms: _509  and  _510
REMARK  204  A    between atoms: _509  and  _512
REMARK  205  A    between atoms: _512  and  _513
REMARK  206  A    between atoms: _513  and  _514
REMARK  207  A    between atoms: _514  and  _515
REMARK  208  A    between atoms: _524  and  _526
REMARK  209  A    between atoms: _526  and  _527
REMARK  210  A    between atoms: _526  and  _529
REMARK  211  A    between atoms: _529  and  _530
REMARK                            x       y       z     vdW  Elec       q    Type
REMARK                         _______ _______ _______ _____ _____    ______ ____
ROOT
ATOM      1  O   HOH     1       9.422  35.102  21.037  0.00  0.00    +0.000 OA
ENDROOT
TORSDOF 0
REMARK  Name = ../refined-set-2016/3el1/3el1_pocket.pdb
REMARK  211 active torsions:
REMARK  status: ('A' for Active; 'I' for Inactive)
REMARK    1  A    between atoms: _1  and  _3
REMARK    2  A    between atoms: _3  and  _4
REMARK    3  A    between atoms: _3  and  _6
REMARK    4  A    between atoms: _6  and  _7
REMARK    5  A    between atoms: _7  and  _8
REMARK    6  A    between atoms: _8  and  _9
REMARK    7  A    between atoms: _18  and  _20
REMARK    8  A    between atoms: _20  and  _21
REMARK    9  A    between atoms: _20  and  _23
REMARK   10  A    between atoms: _23  and  _24
REMARK   11  A    between atoms: _27  and  _29
REMARK   12  A    between atoms: _29  and  _30
REMARK   13  A    between atoms: _29  and  _32
REMARK   14  A    between atoms: _32  and  _33
REMARK   15  A    between atoms: _36  and  _38
REMARK   16  A    between atoms: _38  and  _39
REMARK   17  A    between atoms: _38  and  _41
REMARK   18  A    between atoms: _41  and  _42
REMARK   19  A    between atoms: _45  and  _47
REMARK   20  A    between atoms: _47  and  _48
REMARK   21  A    between atoms: _47  and  _50
REMARK   22  A    between atoms: _50  and  _51
REMARK   23  A    between atoms: _54  and  _56
REMARK   24  A    between atoms: _56  and  _57
REMARK   25  A    between atoms: _59  and  _61
REMARK   26  A    between atoms: _61  and  _62
REMARK   27  A    between atoms: _65  and  _67
REMARK   28  A    between atoms: _67  and  _68
REMARK   29  A    between atoms: _67  and  _70
REMARK   30  A    between atoms: _70  and  _71
REMARK   31  A    between atoms: _74  and  _76
REMARK   32  A    between atoms: _76  and  _77
REMARK   33  A    between atoms: _76  and  _79
REMARK   34  A    between atoms: _79  and  _80
REMARK   35  A    between atoms: _83  and  _85
REMARK   36  A    between atoms: _85  and  _86
REMARK   37  A    between atoms: _85  and  _88
REMARK   38  A    between atoms: _88  and  _89
REMARK   39  A    between atoms: _92  and  _94
REMARK   40  A    between atoms: _94  and  _95
REMARK   41  A    between atoms: _94  and  _97
REMARK   42  A    between atoms: _100  and  _102
REMARK   43  A    between atoms: _102  and  _103
REMARK   44  A    between atoms: _102  and  _105
REMARK   45  A    between atoms: _105  and  _106
REMARK   46  A    between atoms: _106  and  _107
REMARK   47  A    between atoms: _109  and  _111
REMARK   48  A    between atoms: _111  and  _112
REMARK   49  A    between atoms: _111  and  _114
REMARK   50  A    between atoms: _114  and  _115
REMARK   51  A    between atoms: _118  and  _120
REMARK   52  A    between atoms: _120  and  _121
REMARK   53  A    between atoms: _123  and  _125
REMARK   54  A    between atoms: _125  and  _126
REMARK   55  A    between atoms: _128  and  _130
REMARK   56  A    between atoms: _130  and  _131
REMARK   57  A    between atoms: _130  and  _133
REMARK   58  A    between atoms: _133  and  _134
REMARK   59  A    between atoms: _137  and  _139
REMARK   60  A    between atoms: _139  and  _140
REMARK   61  A    between atoms: _142  and  _144
REMARK   62  A    between atoms: _144  and  _145
REMARK   63  A    between atoms: _147  and  _149
REMARK   64  A    between atoms: _149  and  _150
REMARK   65  A    between atoms: _149  and  _152
REMARK   66  A    between atoms: _152  and  _153
REMARK   67  A    between atoms: _159  and  _161
REMARK   68  A    between atoms: _161  and  _162
REMARK   69  A    between atoms: _161  and  _164
REMARK   70  A    between atoms: _164  and  _165
REMARK   71  A    between atoms: _168  and  _170
REMARK   72  A    between atoms: _170  and  _171
REMARK   73  A    between atoms: _170  and  _173
REMARK   74  A    between atoms: _176  and  _178
REMARK   75  A    between atoms: _178  and  _179
REMARK   76  A    between atoms: _178  and  _181
REMARK   77  A    between atoms: _181  and  _182
REMARK   78  A    between atoms: _186  and  _187
REMARK   79  A    between atoms: _192  and  _194
REMARK   80  A    between atoms: _194  and  _195
REMARK   81  A    between atoms: _194  and  _197
REMARK   82  A    between atoms: _197  and  _198
REMARK   83  A    between atoms: _202  and  _203
REMARK   84  A    between atoms: _208  and  _210
REMARK   85  A    between atoms: _210  and  _211
REMARK   86  A    between atoms: _210  and  _213
REMARK   87  A    between atoms: _216  and  _218
REMARK   88  A    between atoms: _218  and  _219
REMARK   89  A    between atoms: _218  and  _221
REMARK   90  A    between atoms: _221  and  _222
REMARK   91  A    between atoms: _227  and  _229
REMARK   92  A    between atoms: _229  and  _230
REMARK   93  A    between atoms: _229  and  _232
REMARK   94  A    between atoms: _232  and  _233
REMARK   95  A    between atoms: _236  and  _238
REMARK   96  A    between atoms: _238  and  _239
REMARK   97  A    between atoms: _238  and  _241
REMARK   98  A    between atoms: _241  and  _242
REMARK   99  A    between atoms: _245  and  _247
REMARK  100  A    between atoms: _247  and  _248
REMARK  101  A    between atoms: _250  and  _252
REMARK  102  A    between atoms: _252  and  _253
REMARK  103  A    between atoms: _252  and  _255
REMARK  104  A    between atoms: _255  and  _256
REMARK  105  A    between atoms: _256  and  _257
REMARK  106  A    between atoms: _257  and  _258
REMARK  107  A    between atoms: _267  and  _269
REMARK  108  A    between atoms: _269  and  _270
REMARK  109  A    between atoms: _269  and  _272
REMARK  110  A    between atoms: _272  and  _273
REMARK  111  A    between atoms: _273  and  _274
REMARK  112  A    between atoms: _274  and  _275
REMARK  113  A    between atoms: _284  and  _286
REMARK  114  A    between atoms: _286  and  _287
REMARK  115  A    between atoms: _286  and  _289
REMARK  116  A    between atoms: _289  and  _290
REMARK  117  A    between atoms: _293  and  _295
REMARK  118  A    between atoms: _295  and  _296
REMARK  119  A    between atoms: _295  and  _298
REMARK  120  A    between atoms: _298  and  _299
REMARK  121  A    between atoms: _302  and  _304
REMARK  122  A    between atoms: _304  and  _305
REMARK  123  A    between atoms: _304  and  _307
REMARK  124  A    between atoms: _307  and  _308
REMARK  125  A    between atoms: _311  and  _313
REMARK  126  A    between atoms: _313  and  _314
REMARK  127  A    between atoms: _313  and  _316
REMARK  128  A    between atoms: _316  and  _317
REMARK  129  A    between atoms: _320  and  _322
REMARK  130  A    between atoms: _322  and  _323
REMARK  131  A    between atoms: _325  and  _327
REMARK  132  A    between atoms: _327  and  _328
REMARK  133  A    between atoms: _331  and  _333
REMARK  134  A    between atoms: _333  and  _334
REMARK  135  A    between atoms: _333  and  _336
REMARK  136  A    between atoms: _336  and  _337
REMARK  137  A    between atoms: _340  and  _342
REMARK  138  A    between atoms: _342  and  _343
REMARK  139  A    between atoms: _342  and  _345
REMARK  140  A    between atoms: _345  and  _346
REMARK  141  A    between atoms: _349  and  _351
REMARK  142  A    between atoms: _351  and  _352
REMARK  143  A    between atoms: _351  and  _354
REMARK  144  A    between atoms: _354  and  _355
REMARK  145  A    between atoms: _358  and  _360
REMARK  146  A    between atoms: _360  and  _361
REMARK  147  A    between atoms: _360  and  _363
REMARK  148  A    between atoms: _366  and  _368
REMARK  149  A    between atoms: _368  and  _369
REMARK  150  A    between atoms: _368  and  _371
REMARK  151  A    between atoms: _371  and  _372
REMARK  152  A    between atoms: _375  and  _377
REMARK  153  A    between atoms: _377  and  _378
REMARK  154  A    between atoms: _380  and  _382
REMARK  155  A    between atoms: _382  and  _383
REMARK  156  A    between atoms: _385  and  _387
REMARK  157  A    between atoms: _387  and  _388
REMARK  158  A    between atoms: _387  and  _390
REMARK  159  A    between atoms: _390  and  _391
REMARK  160  A    between atoms: _394  and  _396
REMARK  161  A    between atoms: _396  and  _397
REMARK  162  A    between atoms: _399  and  _401
REMARK  163  A    between atoms: _401  and  _402
REMARK  164  A    between atoms: _404  and  _406
REMARK  165  A    between atoms: _406  and  _407
REMARK  166  A    between atoms: _406  and  _409
REMARK  167  A    between atoms: _409  and  _410
REMARK  168  A    between atoms: _416  and  _418
REMARK  169  A    between atoms: _418  and  _419
REMARK  170  A    between atoms: _418  and  _421
REMARK  171  A    between atoms: _421  and  _422
REMARK  172  A    between atoms: _425  and  _427
REMARK  173  A    between atoms: _427  and  _428
REMARK  174  A    between atoms: _427  and  _430
REMARK  175  A    between atoms: _433  and  _435
REMARK  176  A    between atoms: _435  and  _436
REMARK  177  A    between atoms: _435  and  _438
REMARK  178  A    between atoms: _438  and  _439
REMARK  179  A    between atoms: _443  and  _444
REMARK  180  A    between atoms: _449  and  _451
REMARK  181  A    between atoms: _451  and  _452
REMARK  182  A    between atoms: _451  and  _454
REMARK  183  A    between atoms: _454  and  _455
REMARK  184  A    between atoms: _459  and  _460
REMARK  185  A    between atoms: _465  and  _467
REMARK  186  A    between atoms: _467  and  _468
REMARK  187  A    between atoms: _467  and  _470
REMARK  188  A    between atoms: _473  and  _475
REMARK  189  A    between atoms: _475  and  _476
REMARK  190  A    between atoms: _475  and  _478
REMARK  191  A    between atoms: _478  and  _479
REMARK  192  A    between atoms: _484  and  _486
REMARK  193  A    between atoms: _486  and  _487
REMARK  194  A    between atoms: _486  and  _489
REMARK  195  A    between atoms: _489  and  _490
REMARK  196  A    between atoms: _493  and  _495
REMARK  197  A    between atoms: _495  and  _496
REMARK  198  A    between atoms: _495  and  _498
REMARK  199  A    between atoms: _498  and  _499
REMARK  200  A    between atoms: _502  and  _504
REMARK  201  A    between atoms: _504  and  _505
REMARK  202  A    between atoms: _507  and  _509
REMARK  203  A    between atoms: _509  and  _510
REMARK  204  A    between atoms: _509  and  _512
REMARK  205  A    between atoms: _512  and  _513
REMARK  206  A    between atoms: _513  and  _514
REMARK  207  A    between atoms: _514  and  _515
REMARK  208  A    between atoms: _524  and  _526
REMARK  209  A    between atoms: _526  and  _527
REMARK  210  A    between atoms: _526  and  _529
REMARK  211  A    between atoms: _529  and  _530
REMARK                            x       y       z     vdW  Elec       q    Type
REMARK                         _______ _______ _______ _____ _____    ______ ____
ROOT
ATOM      1  O   HOH     1      17.295  39.518  16.203  0.00  0.00    +0.000 OA
ENDROOT
TORSDOF 0
REMARK  Name = ../refined-set-2016/3el1/3el1_pocket.pdb
REMARK  211 active torsions:
REMARK  status: ('A' for Active; 'I' for Inactive)
REMARK    1  A    between atoms: _1  and  _3
REMARK    2  A    between atoms: _3  and  _4
REMARK    3  A    between atoms: _3  and  _6
REMARK    4  A    between atoms: _6  and  _7
REMARK    5  A    between atoms: _7  and  _8
REMARK    6  A    between atoms: _8  and  _9
REMARK    7  A    between atoms: _18  and  _20
REMARK    8  A    between atoms: _20  and  _21
REMARK    9  A    between atoms: _20  and  _23
REMARK   10  A    between atoms: _23  and  _24
REMARK   11  A    between atoms: _27  and  _29
REMARK   12  A    between atoms: _29  and  _30
REMARK   13  A    between atoms: _29  and  _32
REMARK   14  A    between atoms: _32  and  _33
REMARK   15  A    between atoms: _36  and  _38
REMARK   16  A    between atoms: _38  and  _39
REMARK   17  A    between atoms: _38  and  _41
REMARK   18  A    between atoms: _41  and  _42
REMARK   19  A    between atoms: _45  and  _47
REMARK   20  A    between atoms: _47  and  _48
REMARK   21  A    between atoms: _47  and  _50
REMARK   22  A    between atoms: _50  and  _51
REMARK   23  A    between atoms: _54  and  _56
REMARK   24  A    between atoms: _56  and  _57
REMARK   25  A    between atoms: _59  and  _61
REMARK   26  A    between atoms: _61  and  _62
REMARK   27  A    between atoms: _65  and  _67
REMARK   28  A    between atoms: _67  and  _68
REMARK   29  A    between atoms: _67  and  _70
REMARK   30  A    between atoms: _70  and  _71
REMARK   31  A    between atoms: _74  and  _76
REMARK   32  A    between atoms: _76  and  _77
REMARK   33  A    between atoms: _76  and  _79
REMARK   34  A    between atoms: _79  and  _80
REMARK   35  A    between atoms: _83  and  _85
REMARK   36  A    between atoms: _85  and  _86
REMARK   37  A    between atoms: _85  and  _88
REMARK   38  A    between atoms: _88  and  _89
REMARK   39  A    between atoms: _92  and  _94
REMARK   40  A    between atoms: _94  and  _95
REMARK   41  A    between atoms: _94  and  _97
REMARK   42  A    between atoms: _100  and  _102
REMARK   43  A    between atoms: _102  and  _103
REMARK   44  A    between atoms: _102  and  _105
REMARK   45  A    between atoms: _105  and  _106
REMARK   46  A    between atoms: _106  and  _107
REMARK   47  A    between atoms: _109  and  _111
REMARK   48  A    between atoms: _111  and  _112
REMARK   49  A    between atoms: _111  and  _114
REMARK   50  A    between atoms: _114  and  _115
REMARK   51  A    between atoms: _118  and  _120
REMARK   52  A    between atoms: _120  and  _121
REMARK   53  A    between atoms: _123  and  _125
REMARK   54  A    between atoms: _125  and  _126
REMARK   55  A    between atoms: _128  and  _130
REMARK   56  A    between atoms: _130  and  _131
REMARK   57  A    between atoms: _130  and  _133
REMARK   58  A    between atoms: _133  and  _134
REMARK   59  A    between atoms: _137  and  _139
REMARK   60  A    between atoms: _139  and  _140
REMARK   61  A    between atoms: _142  and  _144
REMARK   62  A    between atoms: _144  and  _145
REMARK   63  A    between atoms: _147  and  _149
REMARK   64  A    between atoms: _149  and  _150
REMARK   65  A    between atoms: _149  and  _152
REMARK   66  A    between atoms: _152  and  _153
REMARK   67  A    between atoms: _159  and  _161
REMARK   68  A    between atoms: _161  and  _162
REMARK   69  A    between atoms: _161  and  _164
REMARK   70  A    between atoms: _164  and  _165
REMARK   71  A    between atoms: _168  and  _170
REMARK   72  A    between atoms: _170  and  _171
REMARK   73  A    between atoms: _170  and  _173
REMARK   74  A    between atoms: _176  and  _178
REMARK   75  A    between atoms: _178  and  _179
REMARK   76  A    between atoms: _178  and  _181
REMARK   77  A    between atoms: _181  and  _182
REMARK   78  A    between atoms: _186  and  _187
REMARK   79  A    between atoms: _192  and  _194
REMARK   80  A    between atoms: _194  and  _195
REMARK   81  A    between atoms: _194  and  _197
REMARK   82  A    between atoms: _197  and  _198
REMARK   83  A    between atoms: _202  and  _203
REMARK   84  A    between atoms: _208  and  _210
REMARK   85  A    between atoms: _210  and  _211
REMARK   86  A    between atoms: _210  and  _213
REMARK   87  A    between atoms: _216  and  _218
REMARK   88  A    between atoms: _218  and  _219
REMARK   89  A    between atoms: _218  and  _221
REMARK   90  A    between atoms: _221  and  _222
REMARK   91  A    between atoms: _227  and  _229
REMARK   92  A    between atoms: _229  and  _230
REMARK   93  A    between atoms: _229  and  _232
REMARK   94  A    between atoms: _232  and  _233
REMARK   95  A    between atoms: _236  and  _238
REMARK   96  A    between atoms: _238  and  _239
REMARK   97  A    between atoms: _238  and  _241
REMARK   98  A    between atoms: _241  and  _242
REMARK   99  A    between atoms: _245  and  _247
REMARK  100  A    between atoms: _247  and  _248
REMARK  101  A    between atoms: _250  and  _252
REMARK  102  A    between atoms: _252  and  _253
REMARK  103  A    between atoms: _252  and  _255
REMARK  104  A    between atoms: _255  and  _256
REMARK  105  A    between atoms: _256  and  _257
REMARK  106  A    between atoms: _257  and  _258
REMARK  107  A    between atoms: _267  and  _269
REMARK  108  A    between atoms: _269  and  _270
REMARK  109  A    between atoms: _269  and  _272
REMARK  110  A    between atoms: _272  and  _273
REMARK  111  A    between atoms: _273  and  _274
REMARK  112  A    between atoms: _274  and  _275
REMARK  113  A    between atoms: _284  and  _286
REMARK  114  A    between atoms: _286  and  _287
REMARK  115  A    between atoms: _286  and  _289
REMARK  116  A    between atoms: _289  and  _290
REMARK  117  A    between atoms: _293  and  _295
REMARK  118  A    between atoms: _295  and  _296
REMARK  119  A    between atoms: _295  and  _298
REMARK  120  A    between atoms: _298  and  _299
REMARK  121  A    between atoms: _302  and  _304
REMARK  122  A    between atoms: _304  and  _305
REMARK  123  A    between atoms: _304  and  _307
REMARK  124  A    between atoms: _307  and  _308
REMARK  125  A    between atoms: _311  and  _313
REMARK  126  A    between atoms: _313  and  _314
REMARK  127  A    between atoms: _313  and  _316
REMARK  128  A    between atoms: _316  and  _317
REMARK  129  A    between atoms: _320  and  _322
REMARK  130  A    between atoms: _322  and  _323
REMARK  131  A    between atoms: _325  and  _327
REMARK  132  A    between atoms: _327  and  _328
REMARK  133  A    between atoms: _331  and  _333
REMARK  134  A    between atoms: _333  and  _334
REMARK  135  A    between atoms: _333  and  _336
REMARK  136  A    between atoms: _336  and  _337
REMARK  137  A    between atoms: _340  and  _342
REMARK  138  A    between atoms: _342  and  _343
REMARK  139  A    between atoms: _342  and  _345
REMARK  140  A    between atoms: _345  and  _346
REMARK  141  A    between atoms: _349  and  _351
REMARK  142  A    between atoms: _351  and  _352
REMARK  143  A    between atoms: _351  and  _354
REMARK  144  A    between atoms: _354  and  _355
REMARK  145  A    between atoms: _358  and  _360
REMARK  146  A    between atoms: _360  and  _361
REMARK  147  A    between atoms: _360  and  _363
REMARK  148  A    between atoms: _366  and  _368
REMARK  149  A    between atoms: _368  and  _369
REMARK  150  A    between atoms: _368  and  _371
REMARK  151  A    between atoms: _371  and  _372
REMARK  152  A    between atoms: _375  and  _377
REMARK  153  A    between atoms: _377  and  _378
REMARK  154  A    between atoms: _380  and  _382
REMARK  155  A    between atoms: _382  and  _383
REMARK  156  A    between atoms: _385  and  _387
REMARK  157  A    between atoms: _387  and  _388
REMARK  158  A    between atoms: _387  and  _390
REMARK  159  A    between atoms: _390  and  _391
REMARK  160  A    between atoms: _394  and  _396
REMARK  161  A    between atoms: _396  and  _397
REMARK  162  A    between atoms: _399  and  _401
REMARK  163  A    between atoms: _401  and  _402
REMARK  164  A    between atoms: _404  and  _406
REMARK  165  A    between atoms: _406  and  _407
REMARK  166  A    between atoms: _406  and  _409
REMARK  167  A    between atoms: _409  and  _410
REMARK  168  A    between atoms: _416  and  _418
REMARK  169  A    between atoms: _418  and  _419
REMARK  170  A    between atoms: _418  and  _421
REMARK  171  A    between atoms: _421  and  _422
REMARK  172  A    between atoms: _425  and  _427
REMARK  173  A    between atoms: _427  and  _428
REMARK  174  A    between atoms: _427  and  _430
REMARK  175  A    between atoms: _433  and  _435
REMARK  176  A    between atoms: _435  and  _436
REMARK  177  A    between atoms: _435  and  _438
REMARK  178  A    between atoms: _438  and  _439
REMARK  179  A    between atoms: _443  and  _444
REMARK  180  A    between atoms: _449  and  _451
REMARK  181  A    between atoms: _451  and  _452
REMARK  182  A    between atoms: _451  and  _454
REMARK  183  A    between atoms: _454  and  _455
REMARK  184  A    between atoms: _459  and  _460
REMARK  185  A    between atoms: _465  and  _467
REMARK  186  A    between atoms: _467  and  _468
REMARK  187  A    between atoms: _467  and  _470
REMARK  188  A    between atoms: _473  and  _475
REMARK  189  A    between atoms: _475  and  _476
REMARK  190  A    between atoms: _475  and  _478
REMARK  191  A    between atoms: _478  and  _479
REMARK  192  A    between atoms: _484  and  _486
REMARK  193  A    between atoms: _486  and  _487
REMARK  194  A    between atoms: _486  and  _489
REMARK  195  A    between atoms: _489  and  _490
REMARK  196  A    between atoms: _493  and  _495
REMARK  197  A    between atoms: _495  and  _496
REMARK  198  A    between atoms: _495  and  _498
REMARK  199  A    between atoms: _498  and  _499
REMARK  200  A    between atoms: _502  and  _504
REMARK  201  A    between atoms: _504  and  _505
REMARK  202  A    between atoms: _507  and  _509
REMARK  203  A    between atoms: _509  and  _510
REMARK  204  A    between atoms: _509  and  _512
REMARK  205  A    between atoms: _512  and  _513
REMARK  206  A    between atoms: _513  and  _514
REMARK  207  A    between atoms: _514  and  _515
REMARK  208  A    between atoms: _524  and  _526
REMARK  209  A    between atoms: _526  and  _527
REMARK  210  A    between atoms: _526  and  _529
REMARK  211  A    between atoms: _529  and  _530
REMARK                            x       y       z     vdW  Elec       q    Type
REMARK                         _______ _______ _______ _____ _____    ______ ____
ROOT
ATOM      1  O   HOH     1      14.476  35.440  25.686  0.00  0.00    +0.000 OA
ENDROOT
TORSDOF 0
REMARK  Name = ../refined-set-2016/3el1/3el1_pocket.pdb
REMARK  211 active torsions:
REMARK  status: ('A' for Active; 'I' for Inactive)
REMARK    1  A    between atoms: _1  and  _3
REMARK    2  A    between atoms: _3  and  _4
REMARK    3  A    between atoms: _3  and  _6
REMARK    4  A    between atoms: _6  and  _7
REMARK    5  A    between atoms: _7  and  _8
REMARK    6  A    between atoms: _8  and  _9
REMARK    7  A    between atoms: _18  and  _20
REMARK    8  A    between atoms: _20  and  _21
REMARK    9  A    between atoms: _20  and  _23
REMARK   10  A    between atoms: _23  and  _24
REMARK   11  A    between atoms: _27  and  _29
REMARK   12  A    between atoms: _29  and  _30
REMARK   13  A    between atoms: _29  and  _32
REMARK   14  A    between atoms: _32  and  _33
REMARK   15  A    between atoms: _36  and  _38
REMARK   16  A    between atoms: _38  and  _39
REMARK   17  A    between atoms: _38  and  _41
REMARK   18  A    between atoms: _41  and  _42
REMARK   19  A    between atoms: _45  and  _47
REMARK   20  A    between atoms: _47  and  _48
REMARK   21  A    between atoms: _47  and  _50
REMARK   22  A    between atoms: _50  and  _51
REMARK   23  A    between atoms: _54  and  _56
REMARK   24  A    between atoms: _56  and  _57
REMARK   25  A    between atoms: _59  and  _61
REMARK   26  A    between atoms: _61  and  _62
REMARK   27  A    between atoms: _65  and  _67
REMARK   28  A    between atoms: _67  and  _68
REMARK   29  A    between atoms: _67  and  _70
REMARK   30  A    between atoms: _70  and  _71
REMARK   31  A    between atoms: _74  and  _76
REMARK   32  A    between atoms: _76  and  _77
REMARK   33  A    between atoms: _76  and  _79
REMARK   34  A    between atoms: _79  and  _80
REMARK   35  A    between atoms: _83  and  _85
REMARK   36  A    between atoms: _85  and  _86
REMARK   37  A    between atoms: _85  and  _88
REMARK   38  A    between atoms: _88  and  _89
REMARK   39  A    between atoms: _92  and  _94
REMARK   40  A    between atoms: _94  and  _95
REMARK   41  A    between atoms: _94  and  _97
REMARK   42  A    between atoms: _100  and  _102
REMARK   43  A    between atoms: _102  and  _103
REMARK   44  A    between atoms: _102  and  _105
REMARK   45  A    between atoms: _105  and  _106
REMARK   46  A    between atoms: _106  and  _107
REMARK   47  A    between atoms: _109  and  _111
REMARK   48  A    between atoms: _111  and  _112
REMARK   49  A    between atoms: _111  and  _114
REMARK   50  A    between atoms: _114  and  _115
REMARK   51  A    between atoms: _118  and  _120
REMARK   52  A    between atoms: _120  and  _121
REMARK   53  A    between atoms: _123  and  _125
REMARK   54  A    between atoms: _125  and  _126
REMARK   55  A    between atoms: _128  and  _130
REMARK   56  A    between atoms: _130  and  _131
REMARK   57  A    between atoms: _130  and  _133
REMARK   58  A    between atoms: _133  and  _134
REMARK   59  A    between atoms: _137  and  _139
REMARK   60  A    between atoms: _139  and  _140
REMARK   61  A    between atoms: _142  and  _144
REMARK   62  A    between atoms: _144  and  _145
REMARK   63  A    between atoms: _147  and  _149
REMARK   64  A    between atoms: _149  and  _150
REMARK   65  A    between atoms: _149  and  _152
REMARK   66  A    between atoms: _152  and  _153
REMARK   67  A    between atoms: _159  and  _161
REMARK   68  A    between atoms: _161  and  _162
REMARK   69  A    between atoms: _161  and  _164
REMARK   70  A    between atoms: _164  and  _165
REMARK   71  A    between atoms: _168  and  _170
REMARK   72  A    between atoms: _170  and  _171
REMARK   73  A    between atoms: _170  and  _173
REMARK   74  A    between atoms: _176  and  _178
REMARK   75  A    between atoms: _178  and  _179
REMARK   76  A    between atoms: _178  and  _181
REMARK   77  A    between atoms: _181  and  _182
REMARK   78  A    between atoms: _186  and  _187
REMARK   79  A    between atoms: _192  and  _194
REMARK   80  A    between atoms: _194  and  _195
REMARK   81  A    between atoms: _194  and  _197
REMARK   82  A    between atoms: _197  and  _198
REMARK   83  A    between atoms: _202  and  _203
REMARK   84  A    between atoms: _208  and  _210
REMARK   85  A    between atoms: _210  and  _211
REMARK   86  A    between atoms: _210  and  _213
REMARK   87  A    between atoms: _216  and  _218
REMARK   88  A    between atoms: _218  and  _219
REMARK   89  A    between atoms: _218  and  _221
REMARK   90  A    between atoms: _221  and  _222
REMARK   91  A    between atoms: _227  and  _229
REMARK   92  A    between atoms: _229  and  _230
REMARK   93  A    between atoms: _229  and  _232
REMARK   94  A    between atoms: _232  and  _233
REMARK   95  A    between atoms: _236  and  _238
REMARK   96  A    between atoms: _238  and  _239
REMARK   97  A    between atoms: _238  and  _241
REMARK   98  A    between atoms: _241  and  _242
REMARK   99  A    between atoms: _245  and  _247
REMARK  100  A    between atoms: _247  and  _248
REMARK  101  A    between atoms: _250  and  _252
REMARK  102  A    between atoms: _252  and  _253
REMARK  103  A    between atoms: _252  and  _255
REMARK  104  A    between atoms: _255  and  _256
REMARK  105  A    between atoms: _256  and  _257
REMARK  106  A    between atoms: _257  and  _258
REMARK  107  A    between atoms: _267  and  _269
REMARK  108  A    between atoms: _269  and  _270
REMARK  109  A    between atoms: _269  and  _272
REMARK  110  A    between atoms: _272  and  _273
REMARK  111  A    between atoms: _273  and  _274
REMARK  112  A    between atoms: _274  and  _275
REMARK  113  A    between atoms: _284  and  _286
REMARK  114  A    between atoms: _286  and  _287
REMARK  115  A    between atoms: _286  and  _289
REMARK  116  A    between atoms: _289  and  _290
REMARK  117  A    between atoms: _293  and  _295
REMARK  118  A    between atoms: _295  and  _296
REMARK  119  A    between atoms: _295  and  _298
REMARK  120  A    between atoms: _298  and  _299
REMARK  121  A    between atoms: _302  and  _304
REMARK  122  A    between atoms: _304  and  _305
REMARK  123  A    between atoms: _304  and  _307
REMARK  124  A    between atoms: _307  and  _308
REMARK  125  A    between atoms: _311  and  _313
REMARK  126  A    between atoms: _313  and  _314
REMARK  127  A    between atoms: _313  and  _316
REMARK  128  A    between atoms: _316  and  _317
REMARK  129  A    between atoms: _320  and  _322
REMARK  130  A    between atoms: _322  and  _323
REMARK  131  A    between atoms: _325  and  _327
REMARK  132  A    between atoms: _327  and  _328
REMARK  133  A    between atoms: _331  and  _333
REMARK  134  A    between atoms: _333  and  _334
REMARK  135  A    between atoms: _333  and  _336
REMARK  136  A    between atoms: _336  and  _337
REMARK  137  A    between atoms: _340  and  _342
REMARK  138  A    between atoms: _342  and  _343
REMARK  139  A    between atoms: _342  and  _345
REMARK  140  A    between atoms: _345  and  _346
REMARK  141  A    between atoms: _349  and  _351
REMARK  142  A    between atoms: _351  and  _352
REMARK  143  A    between atoms: _351  and  _354
REMARK  144  A    between atoms: _354  and  _355
REMARK  145  A    between atoms: _358  and  _360
REMARK  146  A    between atoms: _360  and  _361
REMARK  147  A    between atoms: _360  and  _363
REMARK  148  A    between atoms: _366  and  _368
REMARK  149  A    between atoms: _368  and  _369
REMARK  150  A    between atoms: _368  and  _371
REMARK  151  A    between atoms: _371  and  _372
REMARK  152  A    between atoms: _375  and  _377
REMARK  153  A    between atoms: _377  and  _378
REMARK  154  A    between atoms: _380  and  _382
REMARK  155  A    between atoms: _382  and  _383
REMARK  156  A    between atoms: _385  and  _387
REMARK  157  A    between atoms: _387  and  _388
REMARK  158  A    between atoms: _387  and  _390
REMARK  159  A    between atoms: _390  and  _391
REMARK  160  A    between atoms: _394  and  _396
REMARK  161  A    between atoms: _396  and  _397
REMARK  162  A    between atoms: _399  and  _401
REMARK  163  A    between atoms: _401  and  _402
REMARK  164  A    between atoms: _404  and  _406
REMARK  165  A    between atoms: _406  and  _407
REMARK  166  A    between atoms: _406  and  _409
REMARK  167  A    between atoms: _409  and  _410
REMARK  168  A    between atoms: _416  and  _418
REMARK  169  A    between atoms: _418  and  _419
REMARK  170  A    between atoms: _418  and  _421
REMARK  171  A    between atoms: _421  and  _422
REMARK  172  A    between atoms: _425  and  _427
REMARK  173  A    between atoms: _427  and  _428
REMARK  174  A    between atoms: _427  and  _430
REMARK  175  A    between atoms: _433  and  _435
REMARK  176  A    between atoms: _435  and  _436
REMARK  177  A    between atoms: _435  and  _438
REMARK  178  A    between atoms: _438  and  _439
REMARK  179  A    between atoms: _443  and  _444
REMARK  180  A    between atoms: _449  and  _451
REMARK  181  A    between atoms: _451  and  _452
REMARK  182  A    between atoms: _451  and  _454
REMARK  183  A    between atoms: _454  and  _455
REMARK  184  A    between atoms: _459  and  _460
REMARK  185  A    between atoms: _465  and  _467
REMARK  186  A    between atoms: _467  and  _468
REMARK  187  A    between atoms: _467  and  _470
REMARK  188  A    between atoms: _473  and  _475
REMARK  189  A    between atoms: _475  and  _476
REMARK  190  A    between atoms: _475  and  _478
REMARK  191  A    between atoms: _478  and  _479
REMARK  192  A    between atoms: _484  and  _486
REMARK  193  A    between atoms: _486  and  _487
REMARK  194  A    between atoms: _486  and  _489
REMARK  195  A    between atoms: _489  and  _490
REMARK  196  A    between atoms: _493  and  _495
REMARK  197  A    between atoms: _495  and  _496
REMARK  198  A    between atoms: _495  and  _498
REMARK  199  A    between atoms: _498  and  _499
REMARK  200  A    between atoms: _502  and  _504
REMARK  201  A    between atoms: _504  and  _505
REMARK  202  A    between atoms: _507  and  _509
REMARK  203  A    between atoms: _509  and  _510
REMARK  204  A    between atoms: _509  and  _512
REMARK  205  A    between atoms: _512  and  _513
REMARK  206  A    between atoms: _513  and  _514
REMARK  207  A    between atoms: _514  and  _515
REMARK  208  A    between atoms: _524  and  _526
REMARK  209  A    between atoms: _526  and  _527
REMARK  210  A    between atoms: _526  and  _529
REMARK  211  A    between atoms: _529  and  _530
REMARK                            x       y       z     vdW  Elec       q    Type
REMARK                         _______ _______ _______ _____ _____    ______ ____
ROOT
ATOM      1  O   HOH     1      25.734  37.553   8.664  0.00  0.00    +0.000 OA
ENDROOT
TORSDOF 0
REMARK  Name = ../refined-set-2016/3el1/3el1_pocket.pdb
REMARK  211 active torsions:
REMARK  status: ('A' for Active; 'I' for Inactive)
REMARK    1  A    between atoms: _1  and  _3
REMARK    2  A    between atoms: _3  and  _4
REMARK    3  A    between atoms: _3  and  _6
REMARK    4  A    between atoms: _6  and  _7
REMARK    5  A    between atoms: _7  and  _8
REMARK    6  A    between atoms: _8  and  _9
REMARK    7  A    between atoms: _18  and  _20
REMARK    8  A    between atoms: _20  and  _21
REMARK    9  A    between atoms: _20  and  _23
REMARK   10  A    between atoms: _23  and  _24
REMARK   11  A    between atoms: _27  and  _29
REMARK   12  A    between atoms: _29  and  _30
REMARK   13  A    between atoms: _29  and  _32
REMARK   14  A    between atoms: _32  and  _33
REMARK   15  A    between atoms: _36  and  _38
REMARK   16  A    between atoms: _38  and  _39
REMARK   17  A    between atoms: _38  and  _41
REMARK   18  A    between atoms: _41  and  _42
REMARK   19  A    between atoms: _45  and  _47
REMARK   20  A    between atoms: _47  and  _48
REMARK   21  A    between atoms: _47  and  _50
REMARK   22  A    between atoms: _50  and  _51
REMARK   23  A    between atoms: _54  and  _56
REMARK   24  A    between atoms: _56  and  _57
REMARK   25  A    between atoms: _59  and  _61
REMARK   26  A    between atoms: _61  and  _62
REMARK   27  A    between atoms: _65  and  _67
REMARK   28  A    between atoms: _67  and  _68
REMARK   29  A    between atoms: _67  and  _70
REMARK   30  A    between atoms: _70  and  _71
REMARK   31  A    between atoms: _74  and  _76
REMARK   32  A    between atoms: _76  and  _77
REMARK   33  A    between atoms: _76  and  _79
REMARK   34  A    between atoms: _79  and  _80
REMARK   35  A    between atoms: _83  and  _85
REMARK   36  A    between atoms: _85  and  _86
REMARK   37  A    between atoms: _85  and  _88
REMARK   38  A    between atoms: _88  and  _89
REMARK   39  A    between atoms: _92  and  _94
REMARK   40  A    between atoms: _94  and  _95
REMARK   41  A    between atoms: _94  and  _97
REMARK   42  A    between atoms: _100  and  _102
REMARK   43  A    between atoms: _102  and  _103
REMARK   44  A    between atoms: _102  and  _105
REMARK   45  A    between atoms: _105  and  _106
REMARK   46  A    between atoms: _106  and  _107
REMARK   47  A    between atoms: _109  and  _111
REMARK   48  A    between atoms: _111  and  _112
REMARK   49  A    between atoms: _111  and  _114
REMARK   50  A    between atoms: _114  and  _115
REMARK   51  A    between atoms: _118  and  _120
REMARK   52  A    between atoms: _120  and  _121
REMARK   53  A    between atoms: _123  and  _125
REMARK   54  A    between atoms: _125  and  _126
REMARK   55  A    between atoms: _128  and  _130
REMARK   56  A    between atoms: _130  and  _131
REMARK   57  A    between atoms: _130  and  _133
REMARK   58  A    between atoms: _133  and  _134
REMARK   59  A    between atoms: _137  and  _139
REMARK   60  A    between atoms: _139  and  _140
REMARK   61  A    between atoms: _142  and  _144
REMARK   62  A    between atoms: _144  and  _145
REMARK   63  A    between atoms: _147  and  _149
REMARK   64  A    between atoms: _149  and  _150
REMARK   65  A    between atoms: _149  and  _152
REMARK   66  A    between atoms: _152  and  _153
REMARK   67  A    between atoms: _159  and  _161
REMARK   68  A    between atoms: _161  and  _162
REMARK   69  A    between atoms: _161  and  _164
REMARK   70  A    between atoms: _164  and  _165
REMARK   71  A    between atoms: _168  and  _170
REMARK   72  A    between atoms: _170  and  _171
REMARK   73  A    between atoms: _170  and  _173
REMARK   74  A    between atoms: _176  and  _178
REMARK   75  A    between atoms: _178  and  _179
REMARK   76  A    between atoms: _178  and  _181
REMARK   77  A    between atoms: _181  and  _182
REMARK   78  A    between atoms: _186  and  _187
REMARK   79  A    between atoms: _192  and  _194
REMARK   80  A    between atoms: _194  and  _195
REMARK   81  A    between atoms: _194  and  _197
REMARK   82  A    between atoms: _197  and  _198
REMARK   83  A    between atoms: _202  and  _203
REMARK   84  A    between atoms: _208  and  _210
REMARK   85  A    between atoms: _210  and  _211
REMARK   86  A    between atoms: _210  and  _213
REMARK   87  A    between atoms: _216  and  _218
REMARK   88  A    between atoms: _218  and  _219
REMARK   89  A    between atoms: _218  and  _221
REMARK   90  A    between atoms: _221  and  _222
REMARK   91  A    between atoms: _227  and  _229
REMARK   92  A    between atoms: _229  and  _230
REMARK   93  A    between atoms: _229  and  _232
REMARK   94  A    between atoms: _232  and  _233
REMARK   95  A    between atoms: _236  and  _238
REMARK   96  A    between atoms: _238  and  _239
REMARK   97  A    between atoms: _238  and  _241
REMARK   98  A    between atoms: _241  and  _242
REMARK   99  A    between atoms: _245  and  _247
REMARK  100  A    between atoms: _247  and  _248
REMARK  101  A    between atoms: _250  and  _252
REMARK  102  A    between atoms: _252  and  _253
REMARK  103  A    between atoms: _252  and  _255
REMARK  104  A    between atoms: _255  and  _256
REMARK  105  A    between atoms: _256  and  _257
REMARK  106  A    between atoms: _257  and  _258
REMARK  107  A    between atoms: _267  and  _269
REMARK  108  A    between atoms: _269  and  _270
REMARK  109  A    between atoms: _269  and  _272
REMARK  110  A    between atoms: _272  and  _273
REMARK  111  A    between atoms: _273  and  _274
REMARK  112  A    between atoms: _274  and  _275
REMARK  113  A    between atoms: _284  and  _286
REMARK  114  A    between atoms: _286  and  _287
REMARK  115  A    between atoms: _286  and  _289
REMARK  116  A    between atoms: _289  and  _290
REMARK  117  A    between atoms: _293  and  _295
REMARK  118  A    between atoms: _295  and  _296
REMARK  119  A    between atoms: _295  and  _298
REMARK  120  A    between atoms: _298  and  _299
REMARK  121  A    between atoms: _302  and  _304
REMARK  122  A    between atoms: _304  and  _305
REMARK  123  A    between atoms: _304  and  _307
REMARK  124  A    between atoms: _307  and  _308
REMARK  125  A    between atoms: _311  and  _313
REMARK  126  A    between atoms: _313  and  _314
REMARK  127  A    between atoms: _313  and  _316
REMARK  128  A    between atoms: _316  and  _317
REMARK  129  A    between atoms: _320  and  _322
REMARK  130  A    between atoms: _322  and  _323
REMARK  131  A    between atoms: _325  and  _327
REMARK  132  A    between atoms: _327  and  _328
REMARK  133  A    between atoms: _331  and  _333
REMARK  134  A    between atoms: _333  and  _334
REMARK  135  A    between atoms: _333  and  _336
REMARK  136  A    between atoms: _336  and  _337
REMARK  137  A    between atoms: _340  and  _342
REMARK  138  A    between atoms: _342  and  _343
REMARK  139  A    between atoms: _342  and  _345
REMARK  140  A    between atoms: _345  and  _346
REMARK  141  A    between atoms: _349  and  _351
REMARK  142  A    between atoms: _351  and  _352
REMARK  143  A    between atoms: _351  and  _354
REMARK  144  A    between atoms: _354  and  _355
REMARK  145  A    between atoms: _358  and  _360
REMARK  146  A    between atoms: _360  and  _361
REMARK  147  A    between atoms: _360  and  _363
REMARK  148  A    between atoms: _366  and  _368
REMARK  149  A    between atoms: _368  and  _369
REMARK  150  A    between atoms: _368  and  _371
REMARK  151  A    between atoms: _371  and  _372
REMARK  152  A    between atoms: _375  and  _377
REMARK  153  A    between atoms: _377  and  _378
REMARK  154  A    between atoms: _380  and  _382
REMARK  155  A    between atoms: _382  and  _383
REMARK  156  A    between atoms: _385  and  _387
REMARK  157  A    between atoms: _387  and  _388
REMARK  158  A    between atoms: _387  and  _390
REMARK  159  A    between atoms: _390  and  _391
REMARK  160  A    between atoms: _394  and  _396
REMARK  161  A    between atoms: _396  and  _397
REMARK  162  A    between atoms: _399  and  _401
REMARK  163  A    between atoms: _401  and  _402
REMARK  164  A    between atoms: _404  and  _406
REMARK  165  A    between atoms: _406  and  _407
REMARK  166  A    between atoms: _406  and  _409
REMARK  167  A    between atoms: _409  and  _410
REMARK  168  A    between atoms: _416  and  _418
REMARK  169  A    between atoms: _418  and  _419
REMARK  170  A    between atoms: _418  and  _421
REMARK  171  A    between atoms: _421  and  _422
REMARK  172  A    between atoms: _425  and  _427
REMARK  173  A    between atoms: _427  and  _428
REMARK  174  A    between atoms: _427  and  _430
REMARK  175  A    between atoms: _433  and  _435
REMARK  176  A    between atoms: _435  and  _436
REMARK  177  A    between atoms: _435  and  _438
REMARK  178  A    between atoms: _438  and  _439
REMARK  179  A    between atoms: _443  and  _444
REMARK  180  A    between atoms: _449  and  _451
REMARK  181  A    between atoms: _451  and  _452
REMARK  182  A    between atoms: _451  and  _454
REMARK  183  A    between atoms: _454  and  _455
REMARK  184  A    between atoms: _459  and  _460
REMARK  185  A    between atoms: _465  and  _467
REMARK  186  A    between atoms: _467  and  _468
REMARK  187  A    between atoms: _467  and  _470
REMARK  188  A    between atoms: _473  and  _475
REMARK  189  A    between atoms: _475  and  _476
REMARK  190  A    between atoms: _475  and  _478
REMARK  191  A    between atoms: _478  and  _479
REMARK  192  A    between atoms: _484  and  _486
REMARK  193  A    between atoms: _486  and  _487
REMARK  194  A    between atoms: _486  and  _489
REMARK  195  A    between atoms: _489  and  _490
REMARK  196  A    between atoms: _493  and  _495
REMARK  197  A    between atoms: _495  and  _496
REMARK  198  A    between atoms: _495  and  _498
REMARK  199  A    between atoms: _498  and  _499
REMARK  200  A    between atoms: _502  and  _504
REMARK  201  A    between atoms: _504  and  _505
REMARK  202  A    between atoms: _507  and  _509
REMARK  203  A    between atoms: _509  and  _510
REMARK  204  A    between atoms: _509  and  _512
REMARK  205  A    between atoms: _512  and  _513
REMARK  206  A    between atoms: _513  and  _514
REMARK  207  A    between atoms: _514  and  _515
REMARK  208  A    between atoms: _524  and  _526
REMARK  209  A    between atoms: _526  and  _527
REMARK  210  A    between atoms: _526  and  _529
REMARK  211  A    between atoms: _529  and  _530
REMARK                            x       y       z     vdW  Elec       q    Type
REMARK                         _______ _______ _______ _____ _____    ______ ____
ROOT
ATOM      1  O   HOH     1      20.689  34.400  20.960  0.00  0.00    +0.000 OA
ENDROOT
TORSDOF 0
REMARK  Name = ../refined-set-2016/3el1/3el1_pocket.pdb
REMARK  211 active torsions:
REMARK  status: ('A' for Active; 'I' for Inactive)
REMARK    1  A    between atoms: _1  and  _3
REMARK    2  A    between atoms: _3  and  _4
REMARK    3  A    between atoms: _3  and  _6
REMARK    4  A    between atoms: _6  and  _7
REMARK    5  A    between atoms: _7  and  _8
REMARK    6  A    between atoms: _8  and  _9
REMARK    7  A    between atoms: _18  and  _20
REMARK    8  A    between atoms: _20  and  _21
REMARK    9  A    between atoms: _20  and  _23
REMARK   10  A    between atoms: _23  and  _24
REMARK   11  A    between atoms: _27  and  _29
REMARK   12  A    between atoms: _29  and  _30
REMARK   13  A    between atoms: _29  and  _32
REMARK   14  A    between atoms: _32  and  _33
REMARK   15  A    between atoms: _36  and  _38
REMARK   16  A    between atoms: _38  and  _39
REMARK   17  A    between atoms: _38  and  _41
REMARK   18  A    between atoms: _41  and  _42
REMARK   19  A    between atoms: _45  and  _47
REMARK   20  A    between atoms: _47  and  _48
REMARK   21  A    between atoms: _47  and  _50
REMARK   22  A    between atoms: _50  and  _51
REMARK   23  A    between atoms: _54  and  _56
REMARK   24  A    between atoms: _56  and  _57
REMARK   25  A    between atoms: _59  and  _61
REMARK   26  A    between atoms: _61  and  _62
REMARK   27  A    between atoms: _65  and  _67
REMARK   28  A    between atoms: _67  and  _68
REMARK   29  A    between atoms: _67  and  _70
REMARK   30  A    between atoms: _70  and  _71
REMARK   31  A    between atoms: _74  and  _76
REMARK   32  A    between atoms: _76  and  _77
REMARK   33  A    between atoms: _76  and  _79
REMARK   34  A    between atoms: _79  and  _80
REMARK   35  A    between atoms: _83  and  _85
REMARK   36  A    between atoms: _85  and  _86
REMARK   37  A    between atoms: _85  and  _88
REMARK   38  A    between atoms: _88  and  _89
REMARK   39  A    between atoms: _92  and  _94
REMARK   40  A    between atoms: _94  and  _95
REMARK   41  A    between atoms: _94  and  _97
REMARK   42  A    between atoms: _100  and  _102
REMARK   43  A    between atoms: _102  and  _103
REMARK   44  A    between atoms: _102  and  _105
REMARK   45  A    between atoms: _105  and  _106
REMARK   46  A    between atoms: _106  and  _107
REMARK   47  A    between atoms: _109  and  _111
REMARK   48  A    between atoms: _111  and  _112
REMARK   49  A    between atoms: _111  and  _114
REMARK   50  A    between atoms: _114  and  _115
REMARK   51  A    between atoms: _118  and  _120
REMARK   52  A    between atoms: _120  and  _121
REMARK   53  A    between atoms: _123  and  _125
REMARK   54  A    between atoms: _125  and  _126
REMARK   55  A    between atoms: _128  and  _130
REMARK   56  A    between atoms: _130  and  _131
REMARK   57  A    between atoms: _130  and  _133
REMARK   58  A    between atoms: _133  and  _134
REMARK   59  A    between atoms: _137  and  _139
REMARK   60  A    between atoms: _139  and  _140
REMARK   61  A    between atoms: _142  and  _144
REMARK   62  A    between atoms: _144  and  _145
REMARK   63  A    between atoms: _147  and  _149
REMARK   64  A    between atoms: _149  and  _150
REMARK   65  A    between atoms: _149  and  _152
REMARK   66  A    between atoms: _152  and  _153
REMARK   67  A    between atoms: _159  and  _161
REMARK   68  A    between atoms: _161  and  _162
REMARK   69  A    between atoms: _161  and  _164
REMARK   70  A    between atoms: _164  and  _165
REMARK   71  A    between atoms: _168  and  _170
REMARK   72  A    between atoms: _170  and  _171
REMARK   73  A    between atoms: _170  and  _173
REMARK   74  A    between atoms: _176  and  _178
REMARK   75  A    between atoms: _178  and  _179
REMARK   76  A    between atoms: _178  and  _181
REMARK   77  A    between atoms: _181  and  _182
REMARK   78  A    between atoms: _186  and  _187
REMARK   79  A    between atoms: _192  and  _194
REMARK   80  A    between atoms: _194  and  _195
REMARK   81  A    between atoms: _194  and  _197
REMARK   82  A    between atoms: _197  and  _198
REMARK   83  A    between atoms: _202  and  _203
REMARK   84  A    between atoms: _208  and  _210
REMARK   85  A    between atoms: _210  and  _211
REMARK   86  A    between atoms: _210  and  _213
REMARK   87  A    between atoms: _216  and  _218
REMARK   88  A    between atoms: _218  and  _219
REMARK   89  A    between atoms: _218  and  _221
REMARK   90  A    between atoms: _221  and  _222
REMARK   91  A    between atoms: _227  and  _229
REMARK   92  A    between atoms: _229  and  _230
REMARK   93  A    between atoms: _229  and  _232
REMARK   94  A    between atoms: _232  and  _233
REMARK   95  A    between atoms: _236  and  _238
REMARK   96  A    between atoms: _238  and  _239
REMARK   97  A    between atoms: _238  and  _241
REMARK   98  A    between atoms: _241  and  _242
REMARK   99  A    between atoms: _245  and  _247
REMARK  100  A    between atoms: _247  and  _248
REMARK  101  A    between atoms: _250  and  _252
REMARK  102  A    between atoms: _252  and  _253
REMARK  103  A    between atoms: _252  and  _255
REMARK  104  A    between atoms: _255  and  _256
REMARK  105  A    between atoms: _256  and  _257
REMARK  106  A    between atoms: _257  and  _258
REMARK  107  A    between atoms: _267  and  _269
REMARK  108  A    between atoms: _269  and  _270
REMARK  109  A    between atoms: _269  and  _272
REMARK  110  A    between atoms: _272  and  _273
REMARK  111  A    between atoms: _273  and  _274
REMARK  112  A    between atoms: _274  and  _275
REMARK  113  A    between atoms: _284  and  _286
REMARK  114  A    between atoms: _286  and  _287
REMARK  115  A    between atoms: _286  and  _289
REMARK  116  A    between atoms: _289  and  _290
REMARK  117  A    between atoms: _293  and  _295
REMARK  118  A    between atoms: _295  and  _296
REMARK  119  A    between atoms: _295  and  _298
REMARK  120  A    between atoms: _298  and  _299
REMARK  121  A    between atoms: _302  and  _304
REMARK  122  A    between atoms: _304  and  _305
REMARK  123  A    between atoms: _304  and  _307
REMARK  124  A    between atoms: _307  and  _308
REMARK  125  A    between atoms: _311  and  _313
REMARK  126  A    between atoms: _313  and  _314
REMARK  127  A    between atoms: _313  and  _316
REMARK  128  A    between atoms: _316  and  _317
REMARK  129  A    between atoms: _320  and  _322
REMARK  130  A    between atoms: _322  and  _323
REMARK  131  A    between atoms: _325  and  _327
REMARK  132  A    between atoms: _327  and  _328
REMARK  133  A    between atoms: _331  and  _333
REMARK  134  A    between atoms: _333  and  _334
REMARK  135  A    between atoms: _333  and  _336
REMARK  136  A    between atoms: _336  and  _337
REMARK  137  A    between atoms: _340  and  _342
REMARK  138  A    between atoms: _342  and  _343
REMARK  139  A    between atoms: _342  and  _345
REMARK  140  A    between atoms: _345  and  _346
REMARK  141  A    between atoms: _349  and  _351
REMARK  142  A    between atoms: _351  and  _352
REMARK  143  A    between atoms: _351  and  _354
REMARK  144  A    between atoms: _354  and  _355
REMARK  145  A    between atoms: _358  and  _360
REMARK  146  A    between atoms: _360  and  _361
REMARK  147  A    between atoms: _360  and  _363
REMARK  148  A    between atoms: _366  and  _368
REMARK  149  A    between atoms: _368  and  _369
REMARK  150  A    between atoms: _368  and  _371
REMARK  151  A    between atoms: _371  and  _372
REMARK  152  A    between atoms: _375  and  _377
REMARK  153  A    between atoms: _377  and  _378
REMARK  154  A    between atoms: _380  and  _382
REMARK  155  A    between atoms: _382  and  _383
REMARK  156  A    between atoms: _385  and  _387
REMARK  157  A    between atoms: _387  and  _388
REMARK  158  A    between atoms: _387  and  _390
REMARK  159  A    between atoms: _390  and  _391
REMARK  160  A    between atoms: _394  and  _396
REMARK  161  A    between atoms: _396  and  _397
REMARK  162  A    between atoms: _399  and  _401
REMARK  163  A    between atoms: _401  and  _402
REMARK  164  A    between atoms: _404  and  _406
REMARK  165  A    between atoms: _406  and  _407
REMARK  166  A    between atoms: _406  and  _409
REMARK  167  A    between atoms: _409  and  _410
REMARK  168  A    between atoms: _416  and  _418
REMARK  169  A    between atoms: _418  and  _419
REMARK  170  A    between atoms: _418  and  _421
REMARK  171  A    between atoms: _421  and  _422
REMARK  172  A    between atoms: _425  and  _427
REMARK  173  A    between atoms: _427  and  _428
REMARK  174  A    between atoms: _427  and  _430
REMARK  175  A    between atoms: _433  and  _435
REMARK  176  A    between atoms: _435  and  _436
REMARK  177  A    between atoms: _435  and  _438
REMARK  178  A    between atoms: _438  and  _439
REMARK  179  A    between atoms: _443  and  _444
REMARK  180  A    between atoms: _449  and  _451
REMARK  181  A    between atoms: _451  and  _452
REMARK  182  A    between atoms: _451  and  _454
REMARK  183  A    between atoms: _454  and  _455
REMARK  184  A    between atoms: _459  and  _460
REMARK  185  A    between atoms: _465  and  _467
REMARK  186  A    between atoms: _467  and  _468
REMARK  187  A    between atoms: _467  and  _470
REMARK  188  A    between atoms: _473  and  _475
REMARK  189  A    between atoms: _475  and  _476
REMARK  190  A    between atoms: _475  and  _478
REMARK  191  A    between atoms: _478  and  _479
REMARK  192  A    between atoms: _484  and  _486
REMARK  193  A    between atoms: _486  and  _487
REMARK  194  A    between atoms: _486  and  _489
REMARK  195  A    between atoms: _489  and  _490
REMARK  196  A    between atoms: _493  and  _495
REMARK  197  A    between atoms: _495  and  _496
REMARK  198  A    between atoms: _495  and  _498
REMARK  199  A    between atoms: _498  and  _499
REMARK  200  A    between atoms: _502  and  _504
REMARK  201  A    between atoms: _504  and  _505
REMARK  202  A    between atoms: _507  and  _509
REMARK  203  A    between atoms: _509  and  _510
REMARK  204  A    between atoms: _509  and  _512
REMARK  205  A    between atoms: _512  and  _513
REMARK  206  A    between atoms: _513  and  _514
REMARK  207  A    between atoms: _514  and  _515
REMARK  208  A    between atoms: _524  and  _526
REMARK  209  A    between atoms: _526  and  _527
REMARK  210  A    between atoms: _526  and  _529
REMARK  211  A    between atoms: _529  and  _530
REMARK                            x       y       z     vdW  Elec       q    Type
REMARK                         _______ _______ _______ _____ _____    ______ ____
ROOT
ATOM      1  O   HOH     1      20.451  21.831  15.420  0.00  0.00    +0.000 OA
ENDROOT
TORSDOF 0
REMARK  Name = ../refined-set-2016/3el1/3el1_pocket.pdb
REMARK  211 active torsions:
REMARK  status: ('A' for Active; 'I' for Inactive)
REMARK    1  A    between atoms: _1  and  _3
REMARK    2  A    between atoms: _3  and  _4
REMARK    3  A    between atoms: _3  and  _6
REMARK    4  A    between atoms: _6  and  _7
REMARK    5  A    between atoms: _7  and  _8
REMARK    6  A    between atoms: _8  and  _9
REMARK    7  A    between atoms: _18  and  _20
REMARK    8  A    between atoms: _20  and  _21
REMARK    9  A    between atoms: _20  and  _23
REMARK   10  A    between atoms: _23  and  _24
REMARK   11  A    between atoms: _27  and  _29
REMARK   12  A    between atoms: _29  and  _30
REMARK   13  A    between atoms: _29  and  _32
REMARK   14  A    between atoms: _32  and  _33
REMARK   15  A    between atoms: _36  and  _38
REMARK   16  A    between atoms: _38  and  _39
REMARK   17  A    between atoms: _38  and  _41
REMARK   18  A    between atoms: _41  and  _42
REMARK   19  A    between atoms: _45  and  _47
REMARK   20  A    between atoms: _47  and  _48
REMARK   21  A    between atoms: _47  and  _50
REMARK   22  A    between atoms: _50  and  _51
REMARK   23  A    between atoms: _54  and  _56
REMARK   24  A    between atoms: _56  and  _57
REMARK   25  A    between atoms: _59  and  _61
REMARK   26  A    between atoms: _61  and  _62
REMARK   27  A    between atoms: _65  and  _67
REMARK   28  A    between atoms: _67  and  _68
REMARK   29  A    between atoms: _67  and  _70
REMARK   30  A    between atoms: _70  and  _71
REMARK   31  A    between atoms: _74  and  _76
REMARK   32  A    between atoms: _76  and  _77
REMARK   33  A    between atoms: _76  and  _79
REMARK   34  A    between atoms: _79  and  _80
REMARK   35  A    between atoms: _83  and  _85
REMARK   36  A    between atoms: _85  and  _86
REMARK   37  A    between atoms: _85  and  _88
REMARK   38  A    between atoms: _88  and  _89
REMARK   39  A    between atoms: _92  and  _94
REMARK   40  A    between atoms: _94  and  _95
REMARK   41  A    between atoms: _94  and  _97
REMARK   42  A    between atoms: _100  and  _102
REMARK   43  A    between atoms: _102  and  _103
REMARK   44  A    between atoms: _102  and  _105
REMARK   45  A    between atoms: _105  and  _106
REMARK   46  A    between atoms: _106  and  _107
REMARK   47  A    between atoms: _109  and  _111
REMARK   48  A    between atoms: _111  and  _112
REMARK   49  A    between atoms: _111  and  _114
REMARK   50  A    between atoms: _114  and  _115
REMARK   51  A    between atoms: _118  and  _120
REMARK   52  A    between atoms: _120  and  _121
REMARK   53  A    between atoms: _123  and  _125
REMARK   54  A    between atoms: _125  and  _126
REMARK   55  A    between atoms: _128  and  _130
REMARK   56  A    between atoms: _130  and  _131
REMARK   57  A    between atoms: _130  and  _133
REMARK   58  A    between atoms: _133  and  _134
REMARK   59  A    between atoms: _137  and  _139
REMARK   60  A    between atoms: _139  and  _140
REMARK   61  A    between atoms: _142  and  _144
REMARK   62  A    between atoms: _144  and  _145
REMARK   63  A    between atoms: _147  and  _149
REMARK   64  A    between atoms: _149  and  _150
REMARK   65  A    between atoms: _149  and  _152
REMARK   66  A    between atoms: _152  and  _153
REMARK   67  A    between atoms: _159  and  _161
REMARK   68  A    between atoms: _161  and  _162
REMARK   69  A    between atoms: _161  and  _164
REMARK   70  A    between atoms: _164  and  _165
REMARK   71  A    between atoms: _168  and  _170
REMARK   72  A    between atoms: _170  and  _171
REMARK   73  A    between atoms: _170  and  _173
REMARK   74  A    between atoms: _176  and  _178
REMARK   75  A    between atoms: _178  and  _179
REMARK   76  A    between atoms: _178  and  _181
REMARK   77  A    between atoms: _181  and  _182
REMARK   78  A    between atoms: _186  and  _187
REMARK   79  A    between atoms: _192  and  _194
REMARK   80  A    between atoms: _194  and  _195
REMARK   81  A    between atoms: _194  and  _197
REMARK   82  A    between atoms: _197  and  _198
REMARK   83  A    between atoms: _202  and  _203
REMARK   84  A    between atoms: _208  and  _210
REMARK   85  A    between atoms: _210  and  _211
REMARK   86  A    between atoms: _210  and  _213
REMARK   87  A    between atoms: _216  and  _218
REMARK   88  A    between atoms: _218  and  _219
REMARK   89  A    between atoms: _218  and  _221
REMARK   90  A    between atoms: _221  and  _222
REMARK   91  A    between atoms: _227  and  _229
REMARK   92  A    between atoms: _229  and  _230
REMARK   93  A    between atoms: _229  and  _232
REMARK   94  A    between atoms: _232  and  _233
REMARK   95  A    between atoms: _236  and  _238
REMARK   96  A    between atoms: _238  and  _239
REMARK   97  A    between atoms: _238  and  _241
REMARK   98  A    between atoms: _241  and  _242
REMARK   99  A    between atoms: _245  and  _247
REMARK  100  A    between atoms: _247  and  _248
REMARK  101  A    between atoms: _250  and  _252
REMARK  102  A    between atoms: _252  and  _253
REMARK  103  A    between atoms: _252  and  _255
REMARK  104  A    between atoms: _255  and  _256
REMARK  105  A    between atoms: _256  and  _257
REMARK  106  A    between atoms: _257  and  _258
REMARK  107  A    between atoms: _267  and  _269
REMARK  108  A    between atoms: _269  and  _270
REMARK  109  A    between atoms: _269  and  _272
REMARK  110  A    between atoms: _272  and  _273
REMARK  111  A    between atoms: _273  and  _274
REMARK  112  A    between atoms: _274  and  _275
REMARK  113  A    between atoms: _284  and  _286
REMARK  114  A    between atoms: _286  and  _287
REMARK  115  A    between atoms: _286  and  _289
REMARK  116  A    between atoms: _289  and  _290
REMARK  117  A    between atoms: _293  and  _295
REMARK  118  A    between atoms: _295  and  _296
REMARK  119  A    between atoms: _295  and  _298
REMARK  120  A    between atoms: _298  and  _299
REMARK  121  A    between atoms: _302  and  _304
REMARK  122  A    between atoms: _304  and  _305
REMARK  123  A    between atoms: _304  and  _307
REMARK  124  A    between atoms: _307  and  _308
REMARK  125  A    between atoms: _311  and  _313
REMARK  126  A    between atoms: _313  and  _314
REMARK  127  A    between atoms: _313  and  _316
REMARK  128  A    between atoms: _316  and  _317
REMARK  129  A    between atoms: _320  and  _322
REMARK  130  A    between atoms: _322  and  _323
REMARK  131  A    between atoms: _325  and  _327
REMARK  132  A    between atoms: _327  and  _328
REMARK  133  A    between atoms: _331  and  _333
REMARK  134  A    between atoms: _333  and  _334
REMARK  135  A    between atoms: _333  and  _336
REMARK  136  A    between atoms: _336  and  _337
REMARK  137  A    between atoms: _340  and  _342
REMARK  138  A    between atoms: _342  and  _343
REMARK  139  A    between atoms: _342  and  _345
REMARK  140  A    between atoms: _345  and  _346
REMARK  141  A    between atoms: _349  and  _351
REMARK  142  A    between atoms: _351  and  _352
REMARK  143  A    between atoms: _351  and  _354
REMARK  144  A    between atoms: _354  and  _355
REMARK  145  A    between atoms: _358  and  _360
REMARK  146  A    between atoms: _360  and  _361
REMARK  147  A    between atoms: _360  and  _363
REMARK  148  A    between atoms: _366  and  _368
REMARK  149  A    between atoms: _368  and  _369
REMARK  150  A    between atoms: _368  and  _371
REMARK  151  A    between atoms: _371  and  _372
REMARK  152  A    between atoms: _375  and  _377
REMARK  153  A    between atoms: _377  and  _378
REMARK  154  A    between atoms: _380  and  _382
REMARK  155  A    between atoms: _382  and  _383
REMARK  156  A    between atoms: _385  and  _387
REMARK  157  A    between atoms: _387  and  _388
REMARK  158  A    between atoms: _387  and  _390
REMARK  159  A    between atoms: _390  and  _391
REMARK  160  A    between atoms: _394  and  _396
REMARK  161  A    between atoms: _396  and  _397
REMARK  162  A    between atoms: _399  and  _401
REMARK  163  A    between atoms: _401  and  _402
REMARK  164  A    between atoms: _404  and  _406
REMARK  165  A    between atoms: _406  and  _407
REMARK  166  A    between atoms: _406  and  _409
REMARK  167  A    between atoms: _409  and  _410
REMARK  168  A    between atoms: _416  and  _418
REMARK  169  A    between atoms: _418  and  _419
REMARK  170  A    between atoms: _418  and  _421
REMARK  171  A    between atoms: _421  and  _422
REMARK  172  A    between atoms: _425  and  _427
REMARK  173  A    between atoms: _427  and  _428
REMARK  174  A    between atoms: _427  and  _430
REMARK  175  A    between atoms: _433  and  _435
REMARK  176  A    between atoms: _435  and  _436
REMARK  177  A    between atoms: _435  and  _438
REMARK  178  A    between atoms: _438  and  _439
REMARK  179  A    between atoms: _443  and  _444
REMARK  180  A    between atoms: _449  and  _451
REMARK  181  A    between atoms: _451  and  _452
REMARK  182  A    between atoms: _451  and  _454
REMARK  183  A    between atoms: _454  and  _455
REMARK  184  A    between atoms: _459  and  _460
REMARK  185  A    between atoms: _465  and  _467
REMARK  186  A    between atoms: _467  and  _468
REMARK  187  A    between atoms: _467  and  _470
REMARK  188  A    between atoms: _473  and  _475
REMARK  189  A    between atoms: _475  and  _476
REMARK  190  A    between atoms: _475  and  _478
REMARK  191  A    between atoms: _478  and  _479
REMARK  192  A    between atoms: _484  and  _486
REMARK  193  A    between atoms: _486  and  _487
REMARK  194  A    between atoms: _486  and  _489
REMARK  195  A    between atoms: _489  and  _490
REMARK  196  A    between atoms: _493  and  _495
REMARK  197  A    between atoms: _495  and  _496
REMARK  198  A    between atoms: _495  and  _498
REMARK  199  A    between atoms: _498  and  _499
REMARK  200  A    between atoms: _502  and  _504
REMARK  201  A    between atoms: _504  and  _505
REMARK  202  A    between atoms: _507  and  _509
REMARK  203  A    between atoms: _509  and  _510
REMARK  204  A    between atoms: _509  and  _512
REMARK  205  A    between atoms: _512  and  _513
REMARK  206  A    between atoms: _513  and  _514
REMARK  207  A    between atoms: _514  and  _515
REMARK  208  A    between atoms: _524  and  _526
REMARK  209  A    between atoms: _526  and  _527
REMARK  210  A    between atoms: _526  and  _529
REMARK  211  A    between atoms: _529  and  _530
REMARK                            x       y       z     vdW  Elec       q    Type
REMARK                         _______ _______ _______ _____ _____    ______ ____
ROOT
ATOM      1  O   HOH     1      20.001  23.369  13.027  0.00  0.00    +0.000 OA
ENDROOT
TORSDOF 0
REMARK  Name = ../refined-set-2016/3el1/3el1_pocket.pdb
REMARK  211 active torsions:
REMARK  status: ('A' for Active; 'I' for Inactive)
REMARK    1  A    between atoms: _1  and  _3
REMARK    2  A    between atoms: _3  and  _4
REMARK    3  A    between atoms: _3  and  _6
REMARK    4  A    between atoms: _6  and  _7
REMARK    5  A    between atoms: _7  and  _8
REMARK    6  A    between atoms: _8  and  _9
REMARK    7  A    between atoms: _18  and  _20
REMARK    8  A    between atoms: _20  and  _21
REMARK    9  A    between atoms: _20  and  _23
REMARK   10  A    between atoms: _23  and  _24
REMARK   11  A    between atoms: _27  and  _29
REMARK   12  A    between atoms: _29  and  _30
REMARK   13  A    between atoms: _29  and  _32
REMARK   14  A    between atoms: _32  and  _33
REMARK   15  A    between atoms: _36  and  _38
REMARK   16  A    between atoms: _38  and  _39
REMARK   17  A    between atoms: _38  and  _41
REMARK   18  A    between atoms: _41  and  _42
REMARK   19  A    between atoms: _45  and  _47
REMARK   20  A    between atoms: _47  and  _48
REMARK   21  A    between atoms: _47  and  _50
REMARK   22  A    between atoms: _50  and  _51
REMARK   23  A    between atoms: _54  and  _56
REMARK   24  A    between atoms: _56  and  _57
REMARK   25  A    between atoms: _59  and  _61
REMARK   26  A    between atoms: _61  and  _62
REMARK   27  A    between atoms: _65  and  _67
REMARK   28  A    between atoms: _67  and  _68
REMARK   29  A    between atoms: _67  and  _70
REMARK   30  A    between atoms: _70  and  _71
REMARK   31  A    between atoms: _74  and  _76
REMARK   32  A    between atoms: _76  and  _77
REMARK   33  A    between atoms: _76  and  _79
REMARK   34  A    between atoms: _79  and  _80
REMARK   35  A    between atoms: _83  and  _85
REMARK   36  A    between atoms: _85  and  _86
REMARK   37  A    between atoms: _85  and  _88
REMARK   38  A    between atoms: _88  and  _89
REMARK   39  A    between atoms: _92  and  _94
REMARK   40  A    between atoms: _94  and  _95
REMARK   41  A    between atoms: _94  and  _97
REMARK   42  A    between atoms: _100  and  _102
REMARK   43  A    between atoms: _102  and  _103
REMARK   44  A    between atoms: _102  and  _105
REMARK   45  A    between atoms: _105  and  _106
REMARK   46  A    between atoms: _106  and  _107
REMARK   47  A    between atoms: _109  and  _111
REMARK   48  A    between atoms: _111  and  _112
REMARK   49  A    between atoms: _111  and  _114
REMARK   50  A    between atoms: _114  and  _115
REMARK   51  A    between atoms: _118  and  _120
REMARK   52  A    between atoms: _120  and  _121
REMARK   53  A    between atoms: _123  and  _125
REMARK   54  A    between atoms: _125  and  _126
REMARK   55  A    between atoms: _128  and  _130
REMARK   56  A    between atoms: _130  and  _131
REMARK   57  A    between atoms: _130  and  _133
REMARK   58  A    between atoms: _133  and  _134
REMARK   59  A    between atoms: _137  and  _139
REMARK   60  A    between atoms: _139  and  _140
REMARK   61  A    between atoms: _142  and  _144
REMARK   62  A    between atoms: _144  and  _145
REMARK   63  A    between atoms: _147  and  _149
REMARK   64  A    between atoms: _149  and  _150
REMARK   65  A    between atoms: _149  and  _152
REMARK   66  A    between atoms: _152  and  _153
REMARK   67  A    between atoms: _159  and  _161
REMARK   68  A    between atoms: _161  and  _162
REMARK   69  A    between atoms: _161  and  _164
REMARK   70  A    between atoms: _164  and  _165
REMARK   71  A    between atoms: _168  and  _170
REMARK   72  A    between atoms: _170  and  _171
REMARK   73  A    between atoms: _170  and  _173
REMARK   74  A    between atoms: _176  and  _178
REMARK   75  A    between atoms: _178  and  _179
REMARK   76  A    between atoms: _178  and  _181
REMARK   77  A    between atoms: _181  and  _182
REMARK   78  A    between atoms: _186  and  _187
REMARK   79  A    between atoms: _192  and  _194
REMARK   80  A    between atoms: _194  and  _195
REMARK   81  A    between atoms: _194  and  _197
REMARK   82  A    between atoms: _197  and  _198
REMARK   83  A    between atoms: _202  and  _203
REMARK   84  A    between atoms: _208  and  _210
REMARK   85  A    between atoms: _210  and  _211
REMARK   86  A    between atoms: _210  and  _213
REMARK   87  A    between atoms: _216  and  _218
REMARK   88  A    between atoms: _218  and  _219
REMARK   89  A    between atoms: _218  and  _221
REMARK   90  A    between atoms: _221  and  _222
REMARK   91  A    between atoms: _227  and  _229
REMARK   92  A    between atoms: _229  and  _230
REMARK   93  A    between atoms: _229  and  _232
REMARK   94  A    between atoms: _232  and  _233
REMARK   95  A    between atoms: _236  and  _238
REMARK   96  A    between atoms: _238  and  _239
REMARK   97  A    between atoms: _238  and  _241
REMARK   98  A    between atoms: _241  and  _242
REMARK   99  A    between atoms: _245  and  _247
REMARK  100  A    between atoms: _247  and  _248
REMARK  101  A    between atoms: _250  and  _252
REMARK  102  A    between atoms: _252  and  _253
REMARK  103  A    between atoms: _252  and  _255
REMARK  104  A    between atoms: _255  and  _256
REMARK  105  A    between atoms: _256  and  _257
REMARK  106  A    between atoms: _257  and  _258
REMARK  107  A    between atoms: _267  and  _269
REMARK  108  A    between atoms: _269  and  _270
REMARK  109  A    between atoms: _269  and  _272
REMARK  110  A    between atoms: _272  and  _273
REMARK  111  A    between atoms: _273  and  _274
REMARK  112  A    between atoms: _274  and  _275
REMARK  113  A    between atoms: _284  and  _286
REMARK  114  A    between atoms: _286  and  _287
REMARK  115  A    between atoms: _286  and  _289
REMARK  116  A    between atoms: _289  and  _290
REMARK  117  A    between atoms: _293  and  _295
REMARK  118  A    between atoms: _295  and  _296
REMARK  119  A    between atoms: _295  and  _298
REMARK  120  A    between atoms: _298  and  _299
REMARK  121  A    between atoms: _302  and  _304
REMARK  122  A    between atoms: _304  and  _305
REMARK  123  A    between atoms: _304  and  _307
REMARK  124  A    between atoms: _307  and  _308
REMARK  125  A    between atoms: _311  and  _313
REMARK  126  A    between atoms: _313  and  _314
REMARK  127  A    between atoms: _313  and  _316
REMARK  128  A    between atoms: _316  and  _317
REMARK  129  A    between atoms: _320  and  _322
REMARK  130  A    between atoms: _322  and  _323
REMARK  131  A    between atoms: _325  and  _327
REMARK  132  A    between atoms: _327  and  _328
REMARK  133  A    between atoms: _331  and  _333
REMARK  134  A    between atoms: _333  and  _334
REMARK  135  A    between atoms: _333  and  _336
REMARK  136  A    between atoms: _336  and  _337
REMARK  137  A    between atoms: _340  and  _342
REMARK  138  A    between atoms: _342  and  _343
REMARK  139  A    between atoms: _342  and  _345
REMARK  140  A    between atoms: _345  and  _346
REMARK  141  A    between atoms: _349  and  _351
REMARK  142  A    between atoms: _351  and  _352
REMARK  143  A    between atoms: _351  and  _354
REMARK  144  A    between atoms: _354  and  _355
REMARK  145  A    between atoms: _358  and  _360
REMARK  146  A    between atoms: _360  and  _361
REMARK  147  A    between atoms: _360  and  _363
REMARK  148  A    between atoms: _366  and  _368
REMARK  149  A    between atoms: _368  and  _369
REMARK  150  A    between atoms: _368  and  _371
REMARK  151  A    between atoms: _371  and  _372
REMARK  152  A    between atoms: _375  and  _377
REMARK  153  A    between atoms: _377  and  _378
REMARK  154  A    between atoms: _380  and  _382
REMARK  155  A    between atoms: _382  and  _383
REMARK  156  A    between atoms: _385  and  _387
REMARK  157  A    between atoms: _387  and  _388
REMARK  158  A    between atoms: _387  and  _390
REMARK  159  A    between atoms: _390  and  _391
REMARK  160  A    between atoms: _394  and  _396
REMARK  161  A    between atoms: _396  and  _397
REMARK  162  A    between atoms: _399  and  _401
REMARK  163  A    between atoms: _401  and  _402
REMARK  164  A    between atoms: _404  and  _406
REMARK  165  A    between atoms: _406  and  _407
REMARK  166  A    between atoms: _406  and  _409
REMARK  167  A    between atoms: _409  and  _410
REMARK  168  A    between atoms: _416  and  _418
REMARK  169  A    between atoms: _418  and  _419
REMARK  170  A    between atoms: _418  and  _421
REMARK  171  A    between atoms: _421  and  _422
REMARK  172  A    between atoms: _425  and  _427
REMARK  173  A    between atoms: _427  and  _428
REMARK  174  A    between atoms: _427  and  _430
REMARK  175  A    between atoms: _433  and  _435
REMARK  176  A    between atoms: _435  and  _436
REMARK  177  A    between atoms: _435  and  _438
REMARK  178  A    between atoms: _438  and  _439
REMARK  179  A    between atoms: _443  and  _444
REMARK  180  A    between atoms: _449  and  _451
REMARK  181  A    between atoms: _451  and  _452
REMARK  182  A    between atoms: _451  and  _454
REMARK  183  A    between atoms: _454  and  _455
REMARK  184  A    between atoms: _459  and  _460
REMARK  185  A    between atoms: _465  and  _467
REMARK  186  A    between atoms: _467  and  _468
REMARK  187  A    between atoms: _467  and  _470
REMARK  188  A    between atoms: _473  and  _475
REMARK  189  A    between atoms: _475  and  _476
REMARK  190  A    between atoms: _475  and  _478
REMARK  191  A    between atoms: _478  and  _479
REMARK  192  A    between atoms: _484  and  _486
REMARK  193  A    between atoms: _486  and  _487
REMARK  194  A    between atoms: _486  and  _489
REMARK  195  A    between atoms: _489  and  _490
REMARK  196  A    between atoms: _493  and  _495
REMARK  197  A    between atoms: _495  and  _496
REMARK  198  A    between atoms: _495  and  _498
REMARK  199  A    between atoms: _498  and  _499
REMARK  200  A    between atoms: _502  and  _504
REMARK  201  A    between atoms: _504  and  _505
REMARK  202  A    between atoms: _507  and  _509
REMARK  203  A    between atoms: _509  and  _510
REMARK  204  A    between atoms: _509  and  _512
REMARK  205  A    between atoms: _512  and  _513
REMARK  206  A    between atoms: _513  and  _514
REMARK  207  A    between atoms: _514  and  _515
REMARK  208  A    between atoms: _524  and  _526
REMARK  209  A    between atoms: _526  and  _527
REMARK  210  A    between atoms: _526  and  _529
REMARK  211  A    between atoms: _529  and  _530
REMARK                            x       y       z     vdW  Elec       q    Type
REMARK                         _______ _______ _______ _____ _____    ______ ____
ROOT
ATOM      1  O   HOH     1      31.407  23.853  11.866  0.00  0.00    +0.000 OA
ENDROOT
TORSDOF 0
REMARK  Name = ../refined-set-2016/3el1/3el1_pocket.pdb
REMARK  211 active torsions:
REMARK  status: ('A' for Active; 'I' for Inactive)
REMARK    1  A    between atoms: _1  and  _3
REMARK    2  A    between atoms: _3  and  _4
REMARK    3  A    between atoms: _3  and  _6
REMARK    4  A    between atoms: _6  and  _7
REMARK    5  A    between atoms: _7  and  _8
REMARK    6  A    between atoms: _8  and  _9
REMARK    7  A    between atoms: _18  and  _20
REMARK    8  A    between atoms: _20  and  _21
REMARK    9  A    between atoms: _20  and  _23
REMARK   10  A    between atoms: _23  and  _24
REMARK   11  A    between atoms: _27  and  _29
REMARK   12  A    between atoms: _29  and  _30
REMARK   13  A    between atoms: _29  and  _32
REMARK   14  A    between atoms: _32  and  _33
REMARK   15  A    between atoms: _36  and  _38
REMARK   16  A    between atoms: _38  and  _39
REMARK   17  A    between atoms: _38  and  _41
REMARK   18  A    between atoms: _41  and  _42
REMARK   19  A    between atoms: _45  and  _47
REMARK   20  A    between atoms: _47  and  _48
REMARK   21  A    between atoms: _47  and  _50
REMARK   22  A    between atoms: _50  and  _51
REMARK   23  A    between atoms: _54  and  _56
REMARK   24  A    between atoms: _56  and  _57
REMARK   25  A    between atoms: _59  and  _61
REMARK   26  A    between atoms: _61  and  _62
REMARK   27  A    between atoms: _65  and  _67
REMARK   28  A    between atoms: _67  and  _68
REMARK   29  A    between atoms: _67  and  _70
REMARK   30  A    between atoms: _70  and  _71
REMARK   31  A    between atoms: _74  and  _76
REMARK   32  A    between atoms: _76  and  _77
REMARK   33  A    between atoms: _76  and  _79
REMARK   34  A    between atoms: _79  and  _80
REMARK   35  A    between atoms: _83  and  _85
REMARK   36  A    between atoms: _85  and  _86
REMARK   37  A    between atoms: _85  and  _88
REMARK   38  A    between atoms: _88  and  _89
REMARK   39  A    between atoms: _92  and  _94
REMARK   40  A    between atoms: _94  and  _95
REMARK   41  A    between atoms: _94  and  _97
REMARK   42  A    between atoms: _100  and  _102
REMARK   43  A    between atoms: _102  and  _103
REMARK   44  A    between atoms: _102  and  _105
REMARK   45  A    between atoms: _105  and  _106
REMARK   46  A    between atoms: _106  and  _107
REMARK   47  A    between atoms: _109  and  _111
REMARK   48  A    between atoms: _111  and  _112
REMARK   49  A    between atoms: _111  and  _114
REMARK   50  A    between atoms: _114  and  _115
REMARK   51  A    between atoms: _118  and  _120
REMARK   52  A    between atoms: _120  and  _121
REMARK   53  A    between atoms: _123  and  _125
REMARK   54  A    between atoms: _125  and  _126
REMARK   55  A    between atoms: _128  and  _130
REMARK   56  A    between atoms: _130  and  _131
REMARK   57  A    between atoms: _130  and  _133
REMARK   58  A    between atoms: _133  and  _134
REMARK   59  A    between atoms: _137  and  _139
REMARK   60  A    between atoms: _139  and  _140
REMARK   61  A    between atoms: _142  and  _144
REMARK   62  A    between atoms: _144  and  _145
REMARK   63  A    between atoms: _147  and  _149
REMARK   64  A    between atoms: _149  and  _150
REMARK   65  A    between atoms: _149  and  _152
REMARK   66  A    between atoms: _152  and  _153
REMARK   67  A    between atoms: _159  and  _161
REMARK   68  A    between atoms: _161  and  _162
REMARK   69  A    between atoms: _161  and  _164
REMARK   70  A    between atoms: _164  and  _165
REMARK   71  A    between atoms: _168  and  _170
REMARK   72  A    between atoms: _170  and  _171
REMARK   73  A    between atoms: _170  and  _173
REMARK   74  A    between atoms: _176  and  _178
REMARK   75  A    between atoms: _178  and  _179
REMARK   76  A    between atoms: _178  and  _181
REMARK   77  A    between atoms: _181  and  _182
REMARK   78  A    between atoms: _186  and  _187
REMARK   79  A    between atoms: _192  and  _194
REMARK   80  A    between atoms: _194  and  _195
REMARK   81  A    between atoms: _194  and  _197
REMARK   82  A    between atoms: _197  and  _198
REMARK   83  A    between atoms: _202  and  _203
REMARK   84  A    between atoms: _208  and  _210
REMARK   85  A    between atoms: _210  and  _211
REMARK   86  A    between atoms: _210  and  _213
REMARK   87  A    between atoms: _216  and  _218
REMARK   88  A    between atoms: _218  and  _219
REMARK   89  A    between atoms: _218  and  _221
REMARK   90  A    between atoms: _221  and  _222
REMARK   91  A    between atoms: _227  and  _229
REMARK   92  A    between atoms: _229  and  _230
REMARK   93  A    between atoms: _229  and  _232
REMARK   94  A    between atoms: _232  and  _233
REMARK   95  A    between atoms: _236  and  _238
REMARK   96  A    between atoms: _238  and  _239
REMARK   97  A    between atoms: _238  and  _241
REMARK   98  A    between atoms: _241  and  _242
REMARK   99  A    between atoms: _245  and  _247
REMARK  100  A    between atoms: _247  and  _248
REMARK  101  A    between atoms: _250  and  _252
REMARK  102  A    between atoms: _252  and  _253
REMARK  103  A    between atoms: _252  and  _255
REMARK  104  A    between atoms: _255  and  _256
REMARK  105  A    between atoms: _256  and  _257
REMARK  106  A    between atoms: _257  and  _258
REMARK  107  A    between atoms: _267  and  _269
REMARK  108  A    between atoms: _269  and  _270
REMARK  109  A    between atoms: _269  and  _272
REMARK  110  A    between atoms: _272  and  _273
REMARK  111  A    between atoms: _273  and  _274
REMARK  112  A    between atoms: _274  and  _275
REMARK  113  A    between atoms: _284  and  _286
REMARK  114  A    between atoms: _286  and  _287
REMARK  115  A    between atoms: _286  and  _289
REMARK  116  A    between atoms: _289  and  _290
REMARK  117  A    between atoms: _293  and  _295
REMARK  118  A    between atoms: _295  and  _296
REMARK  119  A    between atoms: _295  and  _298
REMARK  120  A    between atoms: _298  and  _299
REMARK  121  A    between atoms: _302  and  _304
REMARK  122  A    between atoms: _304  and  _305
REMARK  123  A    between atoms: _304  and  _307
REMARK  124  A    between atoms: _307  and  _308
REMARK  125  A    between atoms: _311  and  _313
REMARK  126  A    between atoms: _313  and  _314
REMARK  127  A    between atoms: _313  and  _316
REMARK  128  A    between atoms: _316  and  _317
REMARK  129  A    between atoms: _320  and  _322
REMARK  130  A    between atoms: _322  and  _323
REMARK  131  A    between atoms: _325  and  _327
REMARK  132  A    between atoms: _327  and  _328
REMARK  133  A    between atoms: _331  and  _333
REMARK  134  A    between atoms: _333  and  _334
REMARK  135  A    between atoms: _333  and  _336
REMARK  136  A    between atoms: _336  and  _337
REMARK  137  A    between atoms: _340  and  _342
REMARK  138  A    between atoms: _342  and  _343
REMARK  139  A    between atoms: _342  and  _345
REMARK  140  A    between atoms: _345  and  _346
REMARK  141  A    between atoms: _349  and  _351
REMARK  142  A    between atoms: _351  and  _352
REMARK  143  A    between atoms: _351  and  _354
REMARK  144  A    between atoms: _354  and  _355
REMARK  145  A    between atoms: _358  and  _360
REMARK  146  A    between atoms: _360  and  _361
REMARK  147  A    between atoms: _360  and  _363
REMARK  148  A    between atoms: _366  and  _368
REMARK  149  A    between atoms: _368  and  _369
REMARK  150  A    between atoms: _368  and  _371
REMARK  151  A    between atoms: _371  and  _372
REMARK  152  A    between atoms: _375  and  _377
REMARK  153  A    between atoms: _377  and  _378
REMARK  154  A    between atoms: _380  and  _382
REMARK  155  A    between atoms: _382  and  _383
REMARK  156  A    between atoms: _385  and  _387
REMARK  157  A    between atoms: _387  and  _388
REMARK  158  A    between atoms: _387  and  _390
REMARK  159  A    between atoms: _390  and  _391
REMARK  160  A    between atoms: _394  and  _396
REMARK  161  A    between atoms: _396  and  _397
REMARK  162  A    between atoms: _399  and  _401
REMARK  163  A    between atoms: _401  and  _402
REMARK  164  A    between atoms: _404  and  _406
REMARK  165  A    between atoms: _406  and  _407
REMARK  166  A    between atoms: _406  and  _409
REMARK  167  A    between atoms: _409  and  _410
REMARK  168  A    between atoms: _416  and  _418
REMARK  169  A    between atoms: _418  and  _419
REMARK  170  A    between atoms: _418  and  _421
REMARK  171  A    between atoms: _421  and  _422
REMARK  172  A    between atoms: _425  and  _427
REMARK  173  A    between atoms: _427  and  _428
REMARK  174  A    between atoms: _427  and  _430
REMARK  175  A    between atoms: _433  and  _435
REMARK  176  A    between atoms: _435  and  _436
REMARK  177  A    between atoms: _435  and  _438
REMARK  178  A    between atoms: _438  and  _439
REMARK  179  A    between atoms: _443  and  _444
REMARK  180  A    between atoms: _449  and  _451
REMARK  181  A    between atoms: _451  and  _452
REMARK  182  A    between atoms: _451  and  _454
REMARK  183  A    between atoms: _454  and  _455
REMARK  184  A    between atoms: _459  and  _460
REMARK  185  A    between atoms: _465  and  _467
REMARK  186  A    between atoms: _467  and  _468
REMARK  187  A    between atoms: _467  and  _470
REMARK  188  A    between atoms: _473  and  _475
REMARK  189  A    between atoms: _475  and  _476
REMARK  190  A    between atoms: _475  and  _478
REMARK  191  A    between atoms: _478  and  _479
REMARK  192  A    between atoms: _484  and  _486
REMARK  193  A    between atoms: _486  and  _487
REMARK  194  A    between atoms: _486  and  _489
REMARK  195  A    between atoms: _489  and  _490
REMARK  196  A    between atoms: _493  and  _495
REMARK  197  A    between atoms: _495  and  _496
REMARK  198  A    between atoms: _495  and  _498
REMARK  199  A    between atoms: _498  and  _499
REMARK  200  A    between atoms: _502  and  _504
REMARK  201  A    between atoms: _504  and  _505
REMARK  202  A    between atoms: _507  and  _509
REMARK  203  A    between atoms: _509  and  _510
REMARK  204  A    between atoms: _509  and  _512
REMARK  205  A    between atoms: _512  and  _513
REMARK  206  A    between atoms: _513  and  _514
REMARK  207  A    between atoms: _514  and  _515
REMARK  208  A    between atoms: _524  and  _526
REMARK  209  A    between atoms: _526  and  _527
REMARK  210  A    between atoms: _526  and  _529
REMARK  211  A    between atoms: _529  and  _530
REMARK                            x       y       z     vdW  Elec       q    Type
REMARK                         _______ _______ _______ _____ _____    ______ ____
ROOT
ATOM      1  O   HOH     1      26.290  18.854  13.364  0.00  0.00    +0.000 OA
ENDROOT
TORSDOF 0
REMARK  Name = ../refined-set-2016/3el1/3el1_pocket.pdb
REMARK  211 active torsions:
REMARK  status: ('A' for Active; 'I' for Inactive)
REMARK    1  A    between atoms: _1  and  _3
REMARK    2  A    between atoms: _3  and  _4
REMARK    3  A    between atoms: _3  and  _6
REMARK    4  A    between atoms: _6  and  _7
REMARK    5  A    between atoms: _7  and  _8
REMARK    6  A    between atoms: _8  and  _9
REMARK    7  A    between atoms: _18  and  _20
REMARK    8  A    between atoms: _20  and  _21
REMARK    9  A    between atoms: _20  and  _23
REMARK   10  A    between atoms: _23  and  _24
REMARK   11  A    between atoms: _27  and  _29
REMARK   12  A    between atoms: _29  and  _30
REMARK   13  A    between atoms: _29  and  _32
REMARK   14  A    between atoms: _32  and  _33
REMARK   15  A    between atoms: _36  and  _38
REMARK   16  A    between atoms: _38  and  _39
REMARK   17  A    between atoms: _38  and  _41
REMARK   18  A    between atoms: _41  and  _42
REMARK   19  A    between atoms: _45  and  _47
REMARK   20  A    between atoms: _47  and  _48
REMARK   21  A    between atoms: _47  and  _50
REMARK   22  A    between atoms: _50  and  _51
REMARK   23  A    between atoms: _54  and  _56
REMARK   24  A    between atoms: _56  and  _57
REMARK   25  A    between atoms: _59  and  _61
REMARK   26  A    between atoms: _61  and  _62
REMARK   27  A    between atoms: _65  and  _67
REMARK   28  A    between atoms: _67  and  _68
REMARK   29  A    between atoms: _67  and  _70
REMARK   30  A    between atoms: _70  and  _71
REMARK   31  A    between atoms: _74  and  _76
REMARK   32  A    between atoms: _76  and  _77
REMARK   33  A    between atoms: _76  and  _79
REMARK   34  A    between atoms: _79  and  _80
REMARK   35  A    between atoms: _83  and  _85
REMARK   36  A    between atoms: _85  and  _86
REMARK   37  A    between atoms: _85  and  _88
REMARK   38  A    between atoms: _88  and  _89
REMARK   39  A    between atoms: _92  and  _94
REMARK   40  A    between atoms: _94  and  _95
REMARK   41  A    between atoms: _94  and  _97
REMARK   42  A    between atoms: _100  and  _102
REMARK   43  A    between atoms: _102  and  _103
REMARK   44  A    between atoms: _102  and  _105
REMARK   45  A    between atoms: _105  and  _106
REMARK   46  A    between atoms: _106  and  _107
REMARK   47  A    between atoms: _109  and  _111
REMARK   48  A    between atoms: _111  and  _112
REMARK   49  A    between atoms: _111  and  _114
REMARK   50  A    between atoms: _114  and  _115
REMARK   51  A    between atoms: _118  and  _120
REMARK   52  A    between atoms: _120  and  _121
REMARK   53  A    between atoms: _123  and  _125
REMARK   54  A    between atoms: _125  and  _126
REMARK   55  A    between atoms: _128  and  _130
REMARK   56  A    between atoms: _130  and  _131
REMARK   57  A    between atoms: _130  and  _133
REMARK   58  A    between atoms: _133  and  _134
REMARK   59  A    between atoms: _137  and  _139
REMARK   60  A    between atoms: _139  and  _140
REMARK   61  A    between atoms: _142  and  _144
REMARK   62  A    between atoms: _144  and  _145
REMARK   63  A    between atoms: _147  and  _149
REMARK   64  A    between atoms: _149  and  _150
REMARK   65  A    between atoms: _149  and  _152
REMARK   66  A    between atoms: _152  and  _153
REMARK   67  A    between atoms: _159  and  _161
REMARK   68  A    between atoms: _161  and  _162
REMARK   69  A    between atoms: _161  and  _164
REMARK   70  A    between atoms: _164  and  _165
REMARK   71  A    between atoms: _168  and  _170
REMARK   72  A    between atoms: _170  and  _171
REMARK   73  A    between atoms: _170  and  _173
REMARK   74  A    between atoms: _176  and  _178
REMARK   75  A    between atoms: _178  and  _179
REMARK   76  A    between atoms: _178  and  _181
REMARK   77  A    between atoms: _181  and  _182
REMARK   78  A    between atoms: _186  and  _187
REMARK   79  A    between atoms: _192  and  _194
REMARK   80  A    between atoms: _194  and  _195
REMARK   81  A    between atoms: _194  and  _197
REMARK   82  A    between atoms: _197  and  _198
REMARK   83  A    between atoms: _202  and  _203
REMARK   84  A    between atoms: _208  and  _210
REMARK   85  A    between atoms: _210  and  _211
REMARK   86  A    between atoms: _210  and  _213
REMARK   87  A    between atoms: _216  and  _218
REMARK   88  A    between atoms: _218  and  _219
REMARK   89  A    between atoms: _218  and  _221
REMARK   90  A    between atoms: _221  and  _222
REMARK   91  A    between atoms: _227  and  _229
REMARK   92  A    between atoms: _229  and  _230
REMARK   93  A    between atoms: _229  and  _232
REMARK   94  A    between atoms: _232  and  _233
REMARK   95  A    between atoms: _236  and  _238
REMARK   96  A    between atoms: _238  and  _239
REMARK   97  A    between atoms: _238  and  _241
REMARK   98  A    between atoms: _241  and  _242
REMARK   99  A    between atoms: _245  and  _247
REMARK  100  A    between atoms: _247  and  _248
REMARK  101  A    between atoms: _250  and  _252
REMARK  102  A    between atoms: _252  and  _253
REMARK  103  A    between atoms: _252  and  _255
REMARK  104  A    between atoms: _255  and  _256
REMARK  105  A    between atoms: _256  and  _257
REMARK  106  A    between atoms: _257  and  _258
REMARK  107  A    between atoms: _267  and  _269
REMARK  108  A    between atoms: _269  and  _270
REMARK  109  A    between atoms: _269  and  _272
REMARK  110  A    between atoms: _272  and  _273
REMARK  111  A    between atoms: _273  and  _274
REMARK  112  A    between atoms: _274  and  _275
REMARK  113  A    between atoms: _284  and  _286
REMARK  114  A    between atoms: _286  and  _287
REMARK  115  A    between atoms: _286  and  _289
REMARK  116  A    between atoms: _289  and  _290
REMARK  117  A    between atoms: _293  and  _295
REMARK  118  A    between atoms: _295  and  _296
REMARK  119  A    between atoms: _295  and  _298
REMARK  120  A    between atoms: _298  and  _299
REMARK  121  A    between atoms: _302  and  _304
REMARK  122  A    between atoms: _304  and  _305
REMARK  123  A    between atoms: _304  and  _307
REMARK  124  A    between atoms: _307  and  _308
REMARK  125  A    between atoms: _311  and  _313
REMARK  126  A    between atoms: _313  and  _314
REMARK  127  A    between atoms: _313  and  _316
REMARK  128  A    between atoms: _316  and  _317
REMARK  129  A    between atoms: _320  and  _322
REMARK  130  A    between atoms: _322  and  _323
REMARK  131  A    between atoms: _325  and  _327
REMARK  132  A    between atoms: _327  and  _328
REMARK  133  A    between atoms: _331  and  _333
REMARK  134  A    between atoms: _333  and  _334
REMARK  135  A    between atoms: _333  and  _336
REMARK  136  A    between atoms: _336  and  _337
REMARK  137  A    between atoms: _340  and  _342
REMARK  138  A    between atoms: _342  and  _343
REMARK  139  A    between atoms: _342  and  _345
REMARK  140  A    between atoms: _345  and  _346
REMARK  141  A    between atoms: _349  and  _351
REMARK  142  A    between atoms: _351  and  _352
REMARK  143  A    between atoms: _351  and  _354
REMARK  144  A    between atoms: _354  and  _355
REMARK  145  A    between atoms: _358  and  _360
REMARK  146  A    between atoms: _360  and  _361
REMARK  147  A    between atoms: _360  and  _363
REMARK  148  A    between atoms: _366  and  _368
REMARK  149  A    between atoms: _368  and  _369
REMARK  150  A    between atoms: _368  and  _371
REMARK  151  A    between atoms: _371  and  _372
REMARK  152  A    between atoms: _375  and  _377
REMARK  153  A    between atoms: _377  and  _378
REMARK  154  A    between atoms: _380  and  _382
REMARK  155  A    between atoms: _382  and  _383
REMARK  156  A    between atoms: _385  and  _387
REMARK  157  A    between atoms: _387  and  _388
REMARK  158  A    between atoms: _387  and  _390
REMARK  159  A    between atoms: _390  and  _391
REMARK  160  A    between atoms: _394  and  _396
REMARK  161  A    between atoms: _396  and  _397
REMARK  162  A    between atoms: _399  and  _401
REMARK  163  A    between atoms: _401  and  _402
REMARK  164  A    between atoms: _404  and  _406
REMARK  165  A    between atoms: _406  and  _407
REMARK  166  A    between atoms: _406  and  _409
REMARK  167  A    between atoms: _409  and  _410
REMARK  168  A    between atoms: _416  and  _418
REMARK  169  A    between atoms: _418  and  _419
REMARK  170  A    between atoms: _418  and  _421
REMARK  171  A    between atoms: _421  and  _422
REMARK  172  A    between atoms: _425  and  _427
REMARK  173  A    between atoms: _427  and  _428
REMARK  174  A    between atoms: _427  and  _430
REMARK  175  A    between atoms: _433  and  _435
REMARK  176  A    between atoms: _435  and  _436
REMARK  177  A    between atoms: _435  and  _438
REMARK  178  A    between atoms: _438  and  _439
REMARK  179  A    between atoms: _443  and  _444
REMARK  180  A    between atoms: _449  and  _451
REMARK  181  A    between atoms: _451  and  _452
REMARK  182  A    between atoms: _451  and  _454
REMARK  183  A    between atoms: _454  and  _455
REMARK  184  A    between atoms: _459  and  _460
REMARK  185  A    between atoms: _465  and  _467
REMARK  186  A    between atoms: _467  and  _468
REMARK  187  A    between atoms: _467  and  _470
REMARK  188  A    between atoms: _473  and  _475
REMARK  189  A    between atoms: _475  and  _476
REMARK  190  A    between atoms: _475  and  _478
REMARK  191  A    between atoms: _478  and  _479
REMARK  192  A    between atoms: _484  and  _486
REMARK  193  A    between atoms: _486  and  _487
REMARK  194  A    between atoms: _486  and  _489
REMARK  195  A    between atoms: _489  and  _490
REMARK  196  A    between atoms: _493  and  _495
REMARK  197  A    between atoms: _495  and  _496
REMARK  198  A    between atoms: _495  and  _498
REMARK  199  A    between atoms: _498  and  _499
REMARK  200  A    between atoms: _502  and  _504
REMARK  201  A    between atoms: _504  and  _505
REMARK  202  A    between atoms: _507  and  _509
REMARK  203  A    between atoms: _509  and  _510
REMARK  204  A    between atoms: _509  and  _512
REMARK  205  A    between atoms: _512  and  _513
REMARK  206  A    between atoms: _513  and  _514
REMARK  207  A    between atoms: _514  and  _515
REMARK  208  A    between atoms: _524  and  _526
REMARK  209  A    between atoms: _526  and  _527
REMARK  210  A    between atoms: _526  and  _529
REMARK  211  A    between atoms: _529  and  _530
REMARK                            x       y       z     vdW  Elec       q    Type
REMARK                         _______ _______ _______ _____ _____    ______ ____
ROOT
ATOM      1  O   HOH     1      23.898  21.508   7.841  0.00  0.00    +0.000 OA
ENDROOT
TORSDOF 0
REMARK  Name = ../refined-set-2016/3el1/3el1_pocket.pdb
REMARK  211 active torsions:
REMARK  status: ('A' for Active; 'I' for Inactive)
REMARK    1  A    between atoms: _1  and  _3
REMARK    2  A    between atoms: _3  and  _4
REMARK    3  A    between atoms: _3  and  _6
REMARK    4  A    between atoms: _6  and  _7
REMARK    5  A    between atoms: _7  and  _8
REMARK    6  A    between atoms: _8  and  _9
REMARK    7  A    between atoms: _18  and  _20
REMARK    8  A    between atoms: _20  and  _21
REMARK    9  A    between atoms: _20  and  _23
REMARK   10  A    between atoms: _23  and  _24
REMARK   11  A    between atoms: _27  and  _29
REMARK   12  A    between atoms: _29  and  _30
REMARK   13  A    between atoms: _29  and  _32
REMARK   14  A    between atoms: _32  and  _33
REMARK   15  A    between atoms: _36  and  _38
REMARK   16  A    between atoms: _38  and  _39
REMARK   17  A    between atoms: _38  and  _41
REMARK   18  A    between atoms: _41  and  _42
REMARK   19  A    between atoms: _45  and  _47
REMARK   20  A    between atoms: _47  and  _48
REMARK   21  A    between atoms: _47  and  _50
REMARK   22  A    between atoms: _50  and  _51
REMARK   23  A    between atoms: _54  and  _56
REMARK   24  A    between atoms: _56  and  _57
REMARK   25  A    between atoms: _59  and  _61
REMARK   26  A    between atoms: _61  and  _62
REMARK   27  A    between atoms: _65  and  _67
REMARK   28  A    between atoms: _67  and  _68
REMARK   29  A    between atoms: _67  and  _70
REMARK   30  A    between atoms: _70  and  _71
REMARK   31  A    between atoms: _74  and  _76
REMARK   32  A    between atoms: _76  and  _77
REMARK   33  A    between atoms: _76  and  _79
REMARK   34  A    between atoms: _79  and  _80
REMARK   35  A    between atoms: _83  and  _85
REMARK   36  A    between atoms: _85  and  _86
REMARK   37  A    between atoms: _85  and  _88
REMARK   38  A    between atoms: _88  and  _89
REMARK   39  A    between atoms: _92  and  _94
REMARK   40  A    between atoms: _94  and  _95
REMARK   41  A    between atoms: _94  and  _97
REMARK   42  A    between atoms: _100  and  _102
REMARK   43  A    between atoms: _102  and  _103
REMARK   44  A    between atoms: _102  and  _105
REMARK   45  A    between atoms: _105  and  _106
REMARK   46  A    between atoms: _106  and  _107
REMARK   47  A    between atoms: _109  and  _111
REMARK   48  A    between atoms: _111  and  _112
REMARK   49  A    between atoms: _111  and  _114
REMARK   50  A    between atoms: _114  and  _115
REMARK   51  A    between atoms: _118  and  _120
REMARK   52  A    between atoms: _120  and  _121
REMARK   53  A    between atoms: _123  and  _125
REMARK   54  A    between atoms: _125  and  _126
REMARK   55  A    between atoms: _128  and  _130
REMARK   56  A    between atoms: _130  and  _131
REMARK   57  A    between atoms: _130  and  _133
REMARK   58  A    between atoms: _133  and  _134
REMARK   59  A    between atoms: _137  and  _139
REMARK   60  A    between atoms: _139  and  _140
REMARK   61  A    between atoms: _142  and  _144
REMARK   62  A    between atoms: _144  and  _145
REMARK   63  A    between atoms: _147  and  _149
REMARK   64  A    between atoms: _149  and  _150
REMARK   65  A    between atoms: _149  and  _152
REMARK   66  A    between atoms: _152  and  _153
REMARK   67  A    between atoms: _159  and  _161
REMARK   68  A    between atoms: _161  and  _162
REMARK   69  A    between atoms: _161  and  _164
REMARK   70  A    between atoms: _164  and  _165
REMARK   71  A    between atoms: _168  and  _170
REMARK   72  A    between atoms: _170  and  _171
REMARK   73  A    between atoms: _170  and  _173
REMARK   74  A    between atoms: _176  and  _178
REMARK   75  A    between atoms: _178  and  _179
REMARK   76  A    between atoms: _178  and  _181
REMARK   77  A    between atoms: _181  and  _182
REMARK   78  A    between atoms: _186  and  _187
REMARK   79  A    between atoms: _192  and  _194
REMARK   80  A    between atoms: _194  and  _195
REMARK   81  A    between atoms: _194  and  _197
REMARK   82  A    between atoms: _197  and  _198
REMARK   83  A    between atoms: _202  and  _203
REMARK   84  A    between atoms: _208  and  _210
REMARK   85  A    between atoms: _210  and  _211
REMARK   86  A    between atoms: _210  and  _213
REMARK   87  A    between atoms: _216  and  _218
REMARK   88  A    between atoms: _218  and  _219
REMARK   89  A    between atoms: _218  and  _221
REMARK   90  A    between atoms: _221  and  _222
REMARK   91  A    between atoms: _227  and  _229
REMARK   92  A    between atoms: _229  and  _230
REMARK   93  A    between atoms: _229  and  _232
REMARK   94  A    between atoms: _232  and  _233
REMARK   95  A    between atoms: _236  and  _238
REMARK   96  A    between atoms: _238  and  _239
REMARK   97  A    between atoms: _238  and  _241
REMARK   98  A    between atoms: _241  and  _242
REMARK   99  A    between atoms: _245  and  _247
REMARK  100  A    between atoms: _247  and  _248
REMARK  101  A    between atoms: _250  and  _252
REMARK  102  A    between atoms: _252  and  _253
REMARK  103  A    between atoms: _252  and  _255
REMARK  104  A    between atoms: _255  and  _256
REMARK  105  A    between atoms: _256  and  _257
REMARK  106  A    between atoms: _257  and  _258
REMARK  107  A    between atoms: _267  and  _269
REMARK  108  A    between atoms: _269  and  _270
REMARK  109  A    between atoms: _269  and  _272
REMARK  110  A    between atoms: _272  and  _273
REMARK  111  A    between atoms: _273  and  _274
REMARK  112  A    between atoms: _274  and  _275
REMARK  113  A    between atoms: _284  and  _286
REMARK  114  A    between atoms: _286  and  _287
REMARK  115  A    between atoms: _286  and  _289
REMARK  116  A    between atoms: _289  and  _290
REMARK  117  A    between atoms: _293  and  _295
REMARK  118  A    between atoms: _295  and  _296
REMARK  119  A    between atoms: _295  and  _298
REMARK  120  A    between atoms: _298  and  _299
REMARK  121  A    between atoms: _302  and  _304
REMARK  122  A    between atoms: _304  and  _305
REMARK  123  A    between atoms: _304  and  _307
REMARK  124  A    between atoms: _307  and  _308
REMARK  125  A    between atoms: _311  and  _313
REMARK  126  A    between atoms: _313  and  _314
REMARK  127  A    between atoms: _313  and  _316
REMARK  128  A    between atoms: _316  and  _317
REMARK  129  A    between atoms: _320  and  _322
REMARK  130  A    between atoms: _322  and  _323
REMARK  131  A    between atoms: _325  and  _327
REMARK  132  A    between atoms: _327  and  _328
REMARK  133  A    between atoms: _331  and  _333
REMARK  134  A    between atoms: _333  and  _334
REMARK  135  A    between atoms: _333  and  _336
REMARK  136  A    between atoms: _336  and  _337
REMARK  137  A    between atoms: _340  and  _342
REMARK  138  A    between atoms: _342  and  _343
REMARK  139  A    between atoms: _342  and  _345
REMARK  140  A    between atoms: _345  and  _346
REMARK  141  A    between atoms: _349  and  _351
REMARK  142  A    between atoms: _351  and  _352
REMARK  143  A    between atoms: _351  and  _354
REMARK  144  A    between atoms: _354  and  _355
REMARK  145  A    between atoms: _358  and  _360
REMARK  146  A    between atoms: _360  and  _361
REMARK  147  A    between atoms: _360  and  _363
REMARK  148  A    between atoms: _366  and  _368
REMARK  149  A    between atoms: _368  and  _369
REMARK  150  A    between atoms: _368  and  _371
REMARK  151  A    between atoms: _371  and  _372
REMARK  152  A    between atoms: _375  and  _377
REMARK  153  A    between atoms: _377  and  _378
REMARK  154  A    between atoms: _380  and  _382
REMARK  155  A    between atoms: _382  and  _383
REMARK  156  A    between atoms: _385  and  _387
REMARK  157  A    between atoms: _387  and  _388
REMARK  158  A    between atoms: _387  and  _390
REMARK  159  A    between atoms: _390  and  _391
REMARK  160  A    between atoms: _394  and  _396
REMARK  161  A    between atoms: _396  and  _397
REMARK  162  A    between atoms: _399  and  _401
REMARK  163  A    between atoms: _401  and  _402
REMARK  164  A    between atoms: _404  and  _406
REMARK  165  A    between atoms: _406  and  _407
REMARK  166  A    between atoms: _406  and  _409
REMARK  167  A    between atoms: _409  and  _410
REMARK  168  A    between atoms: _416  and  _418
REMARK  169  A    between atoms: _418  and  _419
REMARK  170  A    between atoms: _418  and  _421
REMARK  171  A    between atoms: _421  and  _422
REMARK  172  A    between atoms: _425  and  _427
REMARK  173  A    between atoms: _427  and  _428
REMARK  174  A    between atoms: _427  and  _430
REMARK  175  A    between atoms: _433  and  _435
REMARK  176  A    between atoms: _435  and  _436
REMARK  177  A    between atoms: _435  and  _438
REMARK  178  A    between atoms: _438  and  _439
REMARK  179  A    between atoms: _443  and  _444
REMARK  180  A    between atoms: _449  and  _451
REMARK  181  A    between atoms: _451  and  _452
REMARK  182  A    between atoms: _451  and  _454
REMARK  183  A    between atoms: _454  and  _455
REMARK  184  A    between atoms: _459  and  _460
REMARK  185  A    between atoms: _465  and  _467
REMARK  186  A    between atoms: _467  and  _468
REMARK  187  A    between atoms: _467  and  _470
REMARK  188  A    between atoms: _473  and  _475
REMARK  189  A    between atoms: _475  and  _476
REMARK  190  A    between atoms: _475  and  _478
REMARK  191  A    between atoms: _478  and  _479
REMARK  192  A    between atoms: _484  and  _486
REMARK  193  A    between atoms: _486  and  _487
REMARK  194  A    between atoms: _486  and  _489
REMARK  195  A    between atoms: _489  and  _490
REMARK  196  A    between atoms: _493  and  _495
REMARK  197  A    between atoms: _495  and  _496
REMARK  198  A    between atoms: _495  and  _498
REMARK  199  A    between atoms: _498  and  _499
REMARK  200  A    between atoms: _502  and  _504
REMARK  201  A    between atoms: _504  and  _505
REMARK  202  A    between atoms: _507  and  _509
REMARK  203  A    between atoms: _509  and  _510
REMARK  204  A    between atoms: _509  and  _512
REMARK  205  A    between atoms: _512  and  _513
REMARK  206  A    between atoms: _513  and  _514
REMARK  207  A    between atoms: _514  and  _515
REMARK  208  A    between atoms: _524  and  _526
REMARK  209  A    between atoms: _526  and  _527
REMARK  210  A    between atoms: _526  and  _529
REMARK  211  A    between atoms: _529  and  _530
REMARK                            x       y       z     vdW  Elec       q    Type
REMARK                         _______ _______ _______ _____ _____    ______ ____
ROOT
ATOM      1  O   HOH     1      14.599  33.259   5.787  0.00  0.00    +0.000 OA
ENDROOT
TORSDOF 0
REMARK  Name = ../refined-set-2016/3el1/3el1_pocket.pdb
REMARK  211 active torsions:
REMARK  status: ('A' for Active; 'I' for Inactive)
REMARK    1  A    between atoms: _1  and  _3
REMARK    2  A    between atoms: _3  and  _4
REMARK    3  A    between atoms: _3  and  _6
REMARK    4  A    between atoms: _6  and  _7
REMARK    5  A    between atoms: _7  and  _8
REMARK    6  A    between atoms: _8  and  _9
REMARK    7  A    between atoms: _18  and  _20
REMARK    8  A    between atoms: _20  and  _21
REMARK    9  A    between atoms: _20  and  _23
REMARK   10  A    between atoms: _23  and  _24
REMARK   11  A    between atoms: _27  and  _29
REMARK   12  A    between atoms: _29  and  _30
REMARK   13  A    between atoms: _29  and  _32
REMARK   14  A    between atoms: _32  and  _33
REMARK   15  A    between atoms: _36  and  _38
REMARK   16  A    between atoms: _38  and  _39
REMARK   17  A    between atoms: _38  and  _41
REMARK   18  A    between atoms: _41  and  _42
REMARK   19  A    between atoms: _45  and  _47
REMARK   20  A    between atoms: _47  and  _48
REMARK   21  A    between atoms: _47  and  _50
REMARK   22  A    between atoms: _50  and  _51
REMARK   23  A    between atoms: _54  and  _56
REMARK   24  A    between atoms: _56  and  _57
REMARK   25  A    between atoms: _59  and  _61
REMARK   26  A    between atoms: _61  and  _62
REMARK   27  A    between atoms: _65  and  _67
REMARK   28  A    between atoms: _67  and  _68
REMARK   29  A    between atoms: _67  and  _70
REMARK   30  A    between atoms: _70  and  _71
REMARK   31  A    between atoms: _74  and  _76
REMARK   32  A    between atoms: _76  and  _77
REMARK   33  A    between atoms: _76  and  _79
REMARK   34  A    between atoms: _79  and  _80
REMARK   35  A    between atoms: _83  and  _85
REMARK   36  A    between atoms: _85  and  _86
REMARK   37  A    between atoms: _85  and  _88
REMARK   38  A    between atoms: _88  and  _89
REMARK   39  A    between atoms: _92  and  _94
REMARK   40  A    between atoms: _94  and  _95
REMARK   41  A    between atoms: _94  and  _97
REMARK   42  A    between atoms: _100  and  _102
REMARK   43  A    between atoms: _102  and  _103
REMARK   44  A    between atoms: _102  and  _105
REMARK   45  A    between atoms: _105  and  _106
REMARK   46  A    between atoms: _106  and  _107
REMARK   47  A    between atoms: _109  and  _111
REMARK   48  A    between atoms: _111  and  _112
REMARK   49  A    between atoms: _111  and  _114
REMARK   50  A    between atoms: _114  and  _115
REMARK   51  A    between atoms: _118  and  _120
REMARK   52  A    between atoms: _120  and  _121
REMARK   53  A    between atoms: _123  and  _125
REMARK   54  A    between atoms: _125  and  _126
REMARK   55  A    between atoms: _128  and  _130
REMARK   56  A    between atoms: _130  and  _131
REMARK   57  A    between atoms: _130  and  _133
REMARK   58  A    between atoms: _133  and  _134
REMARK   59  A    between atoms: _137  and  _139
REMARK   60  A    between atoms: _139  and  _140
REMARK   61  A    between atoms: _142  and  _144
REMARK   62  A    between atoms: _144  and  _145
REMARK   63  A    between atoms: _147  and  _149
REMARK   64  A    between atoms: _149  and  _150
REMARK   65  A    between atoms: _149  and  _152
REMARK   66  A    between atoms: _152  and  _153
REMARK   67  A    between atoms: _159  and  _161
REMARK   68  A    between atoms: _161  and  _162
REMARK   69  A    between atoms: _161  and  _164
REMARK   70  A    between atoms: _164  and  _165
REMARK   71  A    between atoms: _168  and  _170
REMARK   72  A    between atoms: _170  and  _171
REMARK   73  A    between atoms: _170  and  _173
REMARK   74  A    between atoms: _176  and  _178
REMARK   75  A    between atoms: _178  and  _179
REMARK   76  A    between atoms: _178  and  _181
REMARK   77  A    between atoms: _181  and  _182
REMARK   78  A    between atoms: _186  and  _187
REMARK   79  A    between atoms: _192  and  _194
REMARK   80  A    between atoms: _194  and  _195
REMARK   81  A    between atoms: _194  and  _197
REMARK   82  A    between atoms: _197  and  _198
REMARK   83  A    between atoms: _202  and  _203
REMARK   84  A    between atoms: _208  and  _210
REMARK   85  A    between atoms: _210  and  _211
REMARK   86  A    between atoms: _210  and  _213
REMARK   87  A    between atoms: _216  and  _218
REMARK   88  A    between atoms: _218  and  _219
REMARK   89  A    between atoms: _218  and  _221
REMARK   90  A    between atoms: _221  and  _222
REMARK   91  A    between atoms: _227  and  _229
REMARK   92  A    between atoms: _229  and  _230
REMARK   93  A    between atoms: _229  and  _232
REMARK   94  A    between atoms: _232  and  _233
REMARK   95  A    between atoms: _236  and  _238
REMARK   96  A    between atoms: _238  and  _239
REMARK   97  A    between atoms: _238  and  _241
REMARK   98  A    between atoms: _241  and  _242
REMARK   99  A    between atoms: _245  and  _247
REMARK  100  A    between atoms: _247  and  _248
REMARK  101  A    between atoms: _250  and  _252
REMARK  102  A    between atoms: _252  and  _253
REMARK  103  A    between atoms: _252  and  _255
REMARK  104  A    between atoms: _255  and  _256
REMARK  105  A    between atoms: _256  and  _257
REMARK  106  A    between atoms: _257  and  _258
REMARK  107  A    between atoms: _267  and  _269
REMARK  108  A    between atoms: _269  and  _270
REMARK  109  A    between atoms: _269  and  _272
REMARK  110  A    between atoms: _272  and  _273
REMARK  111  A    between atoms: _273  and  _274
REMARK  112  A    between atoms: _274  and  _275
REMARK  113  A    between atoms: _284  and  _286
REMARK  114  A    between atoms: _286  and  _287
REMARK  115  A    between atoms: _286  and  _289
REMARK  116  A    between atoms: _289  and  _290
REMARK  117  A    between atoms: _293  and  _295
REMARK  118  A    between atoms: _295  and  _296
REMARK  119  A    between atoms: _295  and  _298
REMARK  120  A    between atoms: _298  and  _299
REMARK  121  A    between atoms: _302  and  _304
REMARK  122  A    between atoms: _304  and  _305
REMARK  123  A    between atoms: _304  and  _307
REMARK  124  A    between atoms: _307  and  _308
REMARK  125  A    between atoms: _311  and  _313
REMARK  126  A    between atoms: _313  and  _314
REMARK  127  A    between atoms: _313  and  _316
REMARK  128  A    between atoms: _316  and  _317
REMARK  129  A    between atoms: _320  and  _322
REMARK  130  A    between atoms: _322  and  _323
REMARK  131  A    between atoms: _325  and  _327
REMARK  132  A    between atoms: _327  and  _328
REMARK  133  A    between atoms: _331  and  _333
REMARK  134  A    between atoms: _333  and  _334
REMARK  135  A    between atoms: _333  and  _336
REMARK  136  A    between atoms: _336  and  _337
REMARK  137  A    between atoms: _340  and  _342
REMARK  138  A    between atoms: _342  and  _343
REMARK  139  A    between atoms: _342  and  _345
REMARK  140  A    between atoms: _345  and  _346
REMARK  141  A    between atoms: _349  and  _351
REMARK  142  A    between atoms: _351  and  _352
REMARK  143  A    between atoms: _351  and  _354
REMARK  144  A    between atoms: _354  and  _355
REMARK  145  A    between atoms: _358  and  _360
REMARK  146  A    between atoms: _360  and  _361
REMARK  147  A    between atoms: _360  and  _363
REMARK  148  A    between atoms: _366  and  _368
REMARK  149  A    between atoms: _368  and  _369
REMARK  150  A    between atoms: _368  and  _371
REMARK  151  A    between atoms: _371  and  _372
REMARK  152  A    between atoms: _375  and  _377
REMARK  153  A    between atoms: _377  and  _378
REMARK  154  A    between atoms: _380  and  _382
REMARK  155  A    between atoms: _382  and  _383
REMARK  156  A    between atoms: _385  and  _387
REMARK  157  A    between atoms: _387  and  _388
REMARK  158  A    between atoms: _387  and  _390
REMARK  159  A    between atoms: _390  and  _391
REMARK  160  A    between atoms: _394  and  _396
REMARK  161  A    between atoms: _396  and  _397
REMARK  162  A    between atoms: _399  and  _401
REMARK  163  A    between atoms: _401  and  _402
REMARK  164  A    between atoms: _404  and  _406
REMARK  165  A    between atoms: _406  and  _407
REMARK  166  A    between atoms: _406  and  _409
REMARK  167  A    between atoms: _409  and  _410
REMARK  168  A    between atoms: _416  and  _418
REMARK  169  A    between atoms: _418  and  _419
REMARK  170  A    between atoms: _418  and  _421
REMARK  171  A    between atoms: _421  and  _422
REMARK  172  A    between atoms: _425  and  _427
REMARK  173  A    between atoms: _427  and  _428
REMARK  174  A    between atoms: _427  and  _430
REMARK  175  A    between atoms: _433  and  _435
REMARK  176  A    between atoms: _435  and  _436
REMARK  177  A    between atoms: _435  and  _438
REMARK  178  A    between atoms: _438  and  _439
REMARK  179  A    between atoms: _443  and  _444
REMARK  180  A    between atoms: _449  and  _451
REMARK  181  A    between atoms: _451  and  _452
REMARK  182  A    between atoms: _451  and  _454
REMARK  183  A    between atoms: _454  and  _455
REMARK  184  A    between atoms: _459  and  _460
REMARK  185  A    between atoms: _465  and  _467
REMARK  186  A    between atoms: _467  and  _468
REMARK  187  A    between atoms: _467  and  _470
REMARK  188  A    between atoms: _473  and  _475
REMARK  189  A    between atoms: _475  and  _476
REMARK  190  A    between atoms: _475  and  _478
REMARK  191  A    between atoms: _478  and  _479
REMARK  192  A    between atoms: _484  and  _486
REMARK  193  A    between atoms: _486  and  _487
REMARK  194  A    between atoms: _486  and  _489
REMARK  195  A    between atoms: _489  and  _490
REMARK  196  A    between atoms: _493  and  _495
REMARK  197  A    between atoms: _495  and  _496
REMARK  198  A    between atoms: _495  and  _498
REMARK  199  A    between atoms: _498  and  _499
REMARK  200  A    between atoms: _502  and  _504
REMARK  201  A    between atoms: _504  and  _505
REMARK  202  A    between atoms: _507  and  _509
REMARK  203  A    between atoms: _509  and  _510
REMARK  204  A    between atoms: _509  and  _512
REMARK  205  A    between atoms: _512  and  _513
REMARK  206  A    between atoms: _513  and  _514
REMARK  207  A    between atoms: _514  and  _515
REMARK  208  A    between atoms: _524  and  _526
REMARK  209  A    between atoms: _526  and  _527
REMARK  210  A    between atoms: _526  and  _529
REMARK  211  A    between atoms: _529  and  _530
REMARK                            x       y       z     vdW  Elec       q    Type
REMARK                         _______ _______ _______ _____ _____    ______ ____
ROOT
ATOM      1  O   HOH     1      24.572  24.367   8.276  0.00  0.00    +0.000 OA
ENDROOT
TORSDOF 0
REMARK  Name = ../refined-set-2016/3el1/3el1_pocket.pdb
REMARK  211 active torsions:
REMARK  status: ('A' for Active; 'I' for Inactive)
REMARK    1  A    between atoms: _1  and  _3
REMARK    2  A    between atoms: _3  and  _4
REMARK    3  A    between atoms: _3  and  _6
REMARK    4  A    between atoms: _6  and  _7
REMARK    5  A    between atoms: _7  and  _8
REMARK    6  A    between atoms: _8  and  _9
REMARK    7  A    between atoms: _18  and  _20
REMARK    8  A    between atoms: _20  and  _21
REMARK    9  A    between atoms: _20  and  _23
REMARK   10  A    between atoms: _23  and  _24
REMARK   11  A    between atoms: _27  and  _29
REMARK   12  A    between atoms: _29  and  _30
REMARK   13  A    between atoms: _29  and  _32
REMARK   14  A    between atoms: _32  and  _33
REMARK   15  A    between atoms: _36  and  _38
REMARK   16  A    between atoms: _38  and  _39
REMARK   17  A    between atoms: _38  and  _41
REMARK   18  A    between atoms: _41  and  _42
REMARK   19  A    between atoms: _45  and  _47
REMARK   20  A    between atoms: _47  and  _48
REMARK   21  A    between atoms: _47  and  _50
REMARK   22  A    between atoms: _50  and  _51
REMARK   23  A    between atoms: _54  and  _56
REMARK   24  A    between atoms: _56  and  _57
REMARK   25  A    between atoms: _59  and  _61
REMARK   26  A    between atoms: _61  and  _62
REMARK   27  A    between atoms: _65  and  _67
REMARK   28  A    between atoms: _67  and  _68
REMARK   29  A    between atoms: _67  and  _70
REMARK   30  A    between atoms: _70  and  _71
REMARK   31  A    between atoms: _74  and  _76
REMARK   32  A    between atoms: _76  and  _77
REMARK   33  A    between atoms: _76  and  _79
REMARK   34  A    between atoms: _79  and  _80
REMARK   35  A    between atoms: _83  and  _85
REMARK   36  A    between atoms: _85  and  _86
REMARK   37  A    between atoms: _85  and  _88
REMARK   38  A    between atoms: _88  and  _89
REMARK   39  A    between atoms: _92  and  _94
REMARK   40  A    between atoms: _94  and  _95
REMARK   41  A    between atoms: _94  and  _97
REMARK   42  A    between atoms: _100  and  _102
REMARK   43  A    between atoms: _102  and  _103
REMARK   44  A    between atoms: _102  and  _105
REMARK   45  A    between atoms: _105  and  _106
REMARK   46  A    between atoms: _106  and  _107
REMARK   47  A    between atoms: _109  and  _111
REMARK   48  A    between atoms: _111  and  _112
REMARK   49  A    between atoms: _111  and  _114
REMARK   50  A    between atoms: _114  and  _115
REMARK   51  A    between atoms: _118  and  _120
REMARK   52  A    between atoms: _120  and  _121
REMARK   53  A    between atoms: _123  and  _125
REMARK   54  A    between atoms: _125  and  _126
REMARK   55  A    between atoms: _128  and  _130
REMARK   56  A    between atoms: _130  and  _131
REMARK   57  A    between atoms: _130  and  _133
REMARK   58  A    between atoms: _133  and  _134
REMARK   59  A    between atoms: _137  and  _139
REMARK   60  A    between atoms: _139  and  _140
REMARK   61  A    between atoms: _142  and  _144
REMARK   62  A    between atoms: _144  and  _145
REMARK   63  A    between atoms: _147  and  _149
REMARK   64  A    between atoms: _149  and  _150
REMARK   65  A    between atoms: _149  and  _152
REMARK   66  A    between atoms: _152  and  _153
REMARK   67  A    between atoms: _159  and  _161
REMARK   68  A    between atoms: _161  and  _162
REMARK   69  A    between atoms: _161  and  _164
REMARK   70  A    between atoms: _164  and  _165
REMARK   71  A    between atoms: _168  and  _170
REMARK   72  A    between atoms: _170  and  _171
REMARK   73  A    between atoms: _170  and  _173
REMARK   74  A    between atoms: _176  and  _178
REMARK   75  A    between atoms: _178  and  _179
REMARK   76  A    between atoms: _178  and  _181
REMARK   77  A    between atoms: _181  and  _182
REMARK   78  A    between atoms: _186  and  _187
REMARK   79  A    between atoms: _192  and  _194
REMARK   80  A    between atoms: _194  and  _195
REMARK   81  A    between atoms: _194  and  _197
REMARK   82  A    between atoms: _197  and  _198
REMARK   83  A    between atoms: _202  and  _203
REMARK   84  A    between atoms: _208  and  _210
REMARK   85  A    between atoms: _210  and  _211
REMARK   86  A    between atoms: _210  and  _213
REMARK   87  A    between atoms: _216  and  _218
REMARK   88  A    between atoms: _218  and  _219
REMARK   89  A    between atoms: _218  and  _221
REMARK   90  A    between atoms: _221  and  _222
REMARK   91  A    between atoms: _227  and  _229
REMARK   92  A    between atoms: _229  and  _230
REMARK   93  A    between atoms: _229  and  _232
REMARK   94  A    between atoms: _232  and  _233
REMARK   95  A    between atoms: _236  and  _238
REMARK   96  A    between atoms: _238  and  _239
REMARK   97  A    between atoms: _238  and  _241
REMARK   98  A    between atoms: _241  and  _242
REMARK   99  A    between atoms: _245  and  _247
REMARK  100  A    between atoms: _247  and  _248
REMARK  101  A    between atoms: _250  and  _252
REMARK  102  A    between atoms: _252  and  _253
REMARK  103  A    between atoms: _252  and  _255
REMARK  104  A    between atoms: _255  and  _256
REMARK  105  A    between atoms: _256  and  _257
REMARK  106  A    between atoms: _257  and  _258
REMARK  107  A    between atoms: _267  and  _269
REMARK  108  A    between atoms: _269  and  _270
REMARK  109  A    between atoms: _269  and  _272
REMARK  110  A    between atoms: _272  and  _273
REMARK  111  A    between atoms: _273  and  _274
REMARK  112  A    between atoms: _274  and  _275
REMARK  113  A    between atoms: _284  and  _286
REMARK  114  A    between atoms: _286  and  _287
REMARK  115  A    between atoms: _286  and  _289
REMARK  116  A    between atoms: _289  and  _290
REMARK  117  A    between atoms: _293  and  _295
REMARK  118  A    between atoms: _295  and  _296
REMARK  119  A    between atoms: _295  and  _298
REMARK  120  A    between atoms: _298  and  _299
REMARK  121  A    between atoms: _302  and  _304
REMARK  122  A    between atoms: _304  and  _305
REMARK  123  A    between atoms: _304  and  _307
REMARK  124  A    between atoms: _307  and  _308
REMARK  125  A    between atoms: _311  and  _313
REMARK  126  A    between atoms: _313  and  _314
REMARK  127  A    between atoms: _313  and  _316
REMARK  128  A    between atoms: _316  and  _317
REMARK  129  A    between atoms: _320  and  _322
REMARK  130  A    between atoms: _322  and  _323
REMARK  131  A    between atoms: _325  and  _327
REMARK  132  A    between atoms: _327  and  _328
REMARK  133  A    between atoms: _331  and  _333
REMARK  134  A    between atoms: _333  and  _334
REMARK  135  A    between atoms: _333  and  _336
REMARK  136  A    between atoms: _336  and  _337
REMARK  137  A    between atoms: _340  and  _342
REMARK  138  A    between atoms: _342  and  _343
REMARK  139  A    between atoms: _342  and  _345
REMARK  140  A    between atoms: _345  and  _346
REMARK  141  A    between atoms: _349  and  _351
REMARK  142  A    between atoms: _351  and  _352
REMARK  143  A    between atoms: _351  and  _354
REMARK  144  A    between atoms: _354  and  _355
REMARK  145  A    between atoms: _358  and  _360
REMARK  146  A    between atoms: _360  and  _361
REMARK  147  A    between atoms: _360  and  _363
REMARK  148  A    between atoms: _366  and  _368
REMARK  149  A    between atoms: _368  and  _369
REMARK  150  A    between atoms: _368  and  _371
REMARK  151  A    between atoms: _371  and  _372
REMARK  152  A    between atoms: _375  and  _377
REMARK  153  A    between atoms: _377  and  _378
REMARK  154  A    between atoms: _380  and  _382
REMARK  155  A    between atoms: _382  and  _383
REMARK  156  A    between atoms: _385  and  _387
REMARK  157  A    between atoms: _387  and  _388
REMARK  158  A    between atoms: _387  and  _390
REMARK  159  A    between atoms: _390  and  _391
REMARK  160  A    between atoms: _394  and  _396
REMARK  161  A    between atoms: _396  and  _397
REMARK  162  A    between atoms: _399  and  _401
REMARK  163  A    between atoms: _401  and  _402
REMARK  164  A    between atoms: _404  and  _406
REMARK  165  A    between atoms: _406  and  _407
REMARK  166  A    between atoms: _406  and  _409
REMARK  167  A    between atoms: _409  and  _410
REMARK  168  A    between atoms: _416  and  _418
REMARK  169  A    between atoms: _418  and  _419
REMARK  170  A    between atoms: _418  and  _421
REMARK  171  A    between atoms: _421  and  _422
REMARK  172  A    between atoms: _425  and  _427
REMARK  173  A    between atoms: _427  and  _428
REMARK  174  A    between atoms: _427  and  _430
REMARK  175  A    between atoms: _433  and  _435
REMARK  176  A    between atoms: _435  and  _436
REMARK  177  A    between atoms: _435  and  _438
REMARK  178  A    between atoms: _438  and  _439
REMARK  179  A    between atoms: _443  and  _444
REMARK  180  A    between atoms: _449  and  _451
REMARK  181  A    between atoms: _451  and  _452
REMARK  182  A    between atoms: _451  and  _454
REMARK  183  A    between atoms: _454  and  _455
REMARK  184  A    between atoms: _459  and  _460
REMARK  185  A    between atoms: _465  and  _467
REMARK  186  A    between atoms: _467  and  _468
REMARK  187  A    between atoms: _467  and  _470
REMARK  188  A    between atoms: _473  and  _475
REMARK  189  A    between atoms: _475  and  _476
REMARK  190  A    between atoms: _475  and  _478
REMARK  191  A    between atoms: _478  and  _479
REMARK  192  A    between atoms: _484  and  _486
REMARK  193  A    between atoms: _486  and  _487
REMARK  194  A    between atoms: _486  and  _489
REMARK  195  A    between atoms: _489  and  _490
REMARK  196  A    between atoms: _493  and  _495
REMARK  197  A    between atoms: _495  and  _496
REMARK  198  A    between atoms: _495  and  _498
REMARK  199  A    between atoms: _498  and  _499
REMARK  200  A    between atoms: _502  and  _504
REMARK  201  A    between atoms: _504  and  _505
REMARK  202  A    between atoms: _507  and  _509
REMARK  203  A    between atoms: _509  and  _510
REMARK  204  A    between atoms: _509  and  _512
REMARK  205  A    between atoms: _512  and  _513
REMARK  206  A    between atoms: _513  and  _514
REMARK  207  A    between atoms: _514  and  _515
REMARK  208  A    between atoms: _524  and  _526
REMARK  209  A    between atoms: _526  and  _527
REMARK  210  A    between atoms: _526  and  _529
REMARK  211  A    between atoms: _529  and  _530
REMARK                            x       y       z     vdW  Elec       q    Type
REMARK                         _______ _______ _______ _____ _____    ______ ____
ROOT
ATOM      1  O   HOH     1      23.121  25.963   6.732  0.00  0.00    +0.000 OA
ENDROOT
TORSDOF 0
