REMARK  Name = ../refined-set-2016/4rvr/4rvr_pocket.pdb
REMARK  111 active torsions:
REMARK  status: ('A' for Active; 'I' for Inactive)
REMARK    1  A    between atoms: _1  and  _3
REMARK    2  A    between atoms: _3  and  _4
REMARK    3  A    between atoms: _7  and  _9
REMARK    4  A    between atoms: _9  and  _10
REMARK    5  A    between atoms: _9  and  _12
REMARK    6  A    between atoms: _12  and  _13
REMARK    7  A    between atoms: _24  and  _25
REMARK    8  A    between atoms: _30  and  _32
REMARK    9  A    between atoms: _32  and  _33
REMARK   10  A    between atoms: _32  and  _35
REMARK   11  A    between atoms: _35  and  _36
REMARK   12  A    between atoms: _42  and  _44
REMARK   13  A    between atoms: _44  and  _45
REMARK   14  A    between atoms: _44  and  _47
REMARK   15  A    between atoms: _47  and  _48
REMARK   16  A    between atoms: _51  and  _53
REMARK   17  A    between atoms: _53  and  _54
REMARK   18  A    between atoms: _53  and  _56
REMARK   19  A    between atoms: _56  and  _57
REMARK   20  A    between atoms: _61  and  _62
REMARK   21  A    between atoms: _67  and  _69
REMARK   22  A    between atoms: _69  and  _70
REMARK   23  A    between atoms: _69  and  _72
REMARK   24  A    between atoms: _75  and  _77
REMARK   25  A    between atoms: _77  and  _78
REMARK   26  A    between atoms: _77  and  _80
REMARK   27  A    between atoms: _80  and  _81
REMARK   28  A    between atoms: _86  and  _88
REMARK   29  A    between atoms: _88  and  _89
REMARK   30  A    between atoms: _88  and  _91
REMARK   31  A    between atoms: _91  and  _92
REMARK   32  A    between atoms: _95  and  _97
REMARK   33  A    between atoms: _97  and  _98
REMARK   34  A    between atoms: _97  and  _100
REMARK   35  A    between atoms: _100  and  _101
REMARK   36  A    between atoms: _101  and  _102
REMARK   37  A    between atoms: _102  and  _103
REMARK   38  A    between atoms: _103  and  _104
REMARK   39  A    between atoms: _108  and  _110
REMARK   40  A    between atoms: _110  and  _111
REMARK   41  A    between atoms: _110  and  _113
REMARK   42  A    between atoms: _113  and  _114
REMARK   43  A    between atoms: _117  and  _119
REMARK   44  A    between atoms: _119  and  _120
REMARK   45  A    between atoms: _119  and  _122
REMARK   46  A    between atoms: _126  and  _127
REMARK   47  A    between atoms: _132  and  _134
REMARK   48  A    between atoms: _134  and  _135
REMARK   49  A    between atoms: _134  and  _137
REMARK   50  A    between atoms: _137  and  _138
REMARK   51  A    between atoms: _143  and  _144
REMARK   52  A    between atoms: _146  and  _148
REMARK   53  A    between atoms: _148  and  _149
REMARK   54  A    between atoms: _148  and  _151
REMARK   55  A    between atoms: _151  and  _152
REMARK   56  A    between atoms: _155  and  _157
REMARK   57  A    between atoms: _157  and  _158
REMARK   58  A    between atoms: _157  and  _160
REMARK   59  A    between atoms: _160  and  _161
REMARK   60  A    between atoms: _161  and  _162
REMARK   61  A    between atoms: _164  and  _166
REMARK   62  A    between atoms: _166  and  _167
REMARK   63  A    between atoms: _166  and  _169
REMARK   64  A    between atoms: _169  and  _170
REMARK   65  A    between atoms: _173  and  _175
REMARK   66  A    between atoms: _175  and  _176
REMARK   67  A    between atoms: _175  and  _178
REMARK   68  A    between atoms: _178  and  _179
REMARK   69  A    between atoms: _185  and  _187
REMARK   70  A    between atoms: _187  and  _188
REMARK   71  A    between atoms: _187  and  _190
REMARK   72  A    between atoms: _190  and  _191
REMARK   73  A    between atoms: _193  and  _195
REMARK   74  A    between atoms: _195  and  _196
REMARK   75  A    between atoms: _195  and  _198
REMARK   76  A    between atoms: _201  and  _203
REMARK   77  A    between atoms: _203  and  _204
REMARK   78  A    between atoms: _203  and  _206
REMARK   79  A    between atoms: _206  and  _207
REMARK   80  A    between atoms: _213  and  _215
REMARK   81  A    between atoms: _215  and  _216
REMARK   82  A    between atoms: _215  and  _218
REMARK   83  A    between atoms: _218  and  _219
REMARK   84  A    between atoms: _224  and  _226
REMARK   85  A    between atoms: _226  and  _227
REMARK   86  A    between atoms: _226  and  _229
REMARK   87  A    between atoms: _231  and  _233
REMARK   88  A    between atoms: _233  and  _234
REMARK   89  A    between atoms: _233  and  _236
REMARK   90  A    between atoms: _236  and  _237
REMARK   91  A    between atoms: _237  and  _238
REMARK   92  A    between atoms: _241  and  _243
REMARK   93  A    between atoms: _243  and  _244
REMARK   94  A    between atoms: _243  and  _246
REMARK   95  A    between atoms: _246  and  _247
REMARK   96  A    between atoms: _250  and  _252
REMARK   97  A    between atoms: _252  and  _253
REMARK   98  A    between atoms: _252  and  _255
REMARK   99  A    between atoms: _255  and  _256
REMARK  100  A    between atoms: _262  and  _264
REMARK  101  A    between atoms: _264  and  _265
REMARK  102  A    between atoms: _264  and  _267
REMARK  103  A    between atoms: _267  and  _268
REMARK  104  A    between atoms: _273  and  _275
REMARK  105  A    between atoms: _275  and  _276
REMARK  106  A    between atoms: _275  and  _278
REMARK  107  A    between atoms: _278  and  _279
REMARK  108  A    between atoms: _282  and  _284
REMARK  109  A    between atoms: _284  and  _285
REMARK  110  A    between atoms: _287  and  _289
REMARK  111  A    between atoms: _289  and  _290
REMARK                            x       y       z     vdW  Elec       q    Type
REMARK                         _______ _______ _______ _____ _____    ______ ____
ROOT
ATOM      1  C   PRO A   7      69.139  36.781   5.801  0.00  0.00    +0.241 C 
ATOM      2  O   PRO A   7      70.361  36.823   5.752  0.00  0.00    -0.273 OA
ATOM      3  N   VAL A   8      68.354  37.640   5.172  0.00  0.00    -0.297 N 
ATOM      4  H   VAL A   8      67.323  37.505   5.179  0.00  0.00    +0.150 HD
ENDROOT
BRANCH   1  10
ATOM      5  C   LEU A   6      69.532  33.901   5.311  0.00  0.00    +0.244 C 
ATOM      6  N   PRO A   7      69.234  34.440   6.509  0.00  0.00    -0.272 N 
ATOM      7  CD  PRO A   7      69.642  34.013   7.867  0.00  0.00    +0.094 C 
ATOM      8  CG  PRO A   7      68.724  34.764   8.756  0.00  0.00    +0.024 C 
ATOM      9  CB  PRO A   7      68.370  36.004   8.031  0.00  0.00    +0.031 C 
ATOM     10  CA  PRO A   7      68.451  35.655   6.534  0.00  0.00    +0.152 C 
ATOM     11  O   LEU A   6      69.124  34.393   4.224  0.00  0.00    -0.273 OA
BRANCH   5  12
ATOM     12  CA  LEU A   6      70.451  32.708   5.317  0.00  0.00    +0.149 C 
BRANCH  12  15
ATOM     13  C   LEU A   5      70.130  30.701   3.896  0.00  0.00    +0.241 C 
ATOM     14  O   LEU A   5      69.951  29.972   4.830  0.00  0.00    -0.273 OA
ATOM     15  N   LEU A   6      70.355  32.016   4.016  0.00  0.00    -0.297 N 
ATOM     16  H   LEU A   6      70.468  32.578   3.149  0.00  0.00    +0.150 HD
BRANCH  13  17
ATOM     17  CA  LEU A   5      70.066  30.126   2.476  0.00  0.00    +0.149 C 
BRANCH  17  20
ATOM     18  C   PHE A   4      68.232  31.334   1.469  0.00  0.00    +0.241 C 
ATOM     19  O   PHE A   4      67.443  30.923   2.289  0.00  0.00    -0.273 OA
ATOM     20  N   LEU A   5      69.521  31.040   1.514  0.00  0.00    -0.297 N 
ATOM     21  H   LEU A   5      70.162  31.487   0.828  0.00  0.00    +0.150 HD
BRANCH  18  22
ATOM     22  CA  PHE A   4      67.777  32.253   0.333  0.00  0.00    +0.153 C 
BRANCH  22  25
ATOM     23  C   PRO A   3      69.300  33.889  -0.821  0.00  0.00    +0.241 C 
ATOM     24  O   PRO A   3      68.999  34.838  -0.102  0.00  0.00    -0.273 OA
ATOM     25  N   PHE A   4      68.874  32.621  -0.616  0.00  0.00    -0.297 N 
ATOM     26  H   PHE A   4      69.336  31.857  -1.149  0.00  0.00    +0.150 HD
BRANCH  23  30
ATOM     27  C   TRP A   2      71.533  32.320  -2.230  0.00  0.00    +0.244 C 
ATOM     28  O   TRP A   2      72.045  32.713  -1.164  0.00  0.00    -0.273 OA
ATOM     29  N   PRO A   3      70.513  32.972  -2.825  0.00  0.00    -0.272 N 
ATOM     30  CA  PRO A   3      70.054  34.174  -2.123  0.00  0.00    +0.152 C 
ATOM     31  CB  PRO A   3      69.069  34.814  -3.102  0.00  0.00    +0.031 C 
ATOM     32  CG  PRO A   3      69.425  34.241  -4.476  0.00  0.00    +0.024 C 
ATOM     33  CD  PRO A   3      69.843  32.828  -4.160  0.00  0.00    +0.094 C 
BRANCH  27  34
ATOM     34  CA  TRP A   2      72.045  31.021  -2.851  0.00  0.00    +0.153 C 
BRANCH  34  37
ATOM     35  C   ALA A   1      69.925  29.796  -2.949  0.00  0.00    +0.238 C 
ATOM     36  O   ALA A   1      69.532  30.264  -1.912  0.00  0.00    -0.274 OA
ATOM     37  N   TRP A   2      71.051  30.199  -3.539  0.00  0.00    -0.297 N 
ATOM     38  H   TRP A   2      71.228  29.918  -4.525  0.00  0.00    +0.150 HD
BRANCH  35  39
ATOM     39  CA  ALA A   1      69.078  28.760  -3.693  0.00  0.00    +0.145 C 
ATOM     40  CB  ALA A   1      69.058  27.473  -2.939  0.00  0.00    +0.028 C 
BRANCH  39  41
ATOM     41  N   ALA A   1      69.542  28.522  -5.108  0.00  0.00    -0.238 NA
ATOM     42  H   ALA A   1      70.143  27.699  -5.317  0.00  0.00    +0.142 HD
ENDBRANCH  39  41
ENDBRANCH  35  39
ENDBRANCH  34  37
BRANCH  34  43
ATOM     43  CB  TRP A   2      73.299  31.257  -3.722  0.00  0.00    +0.057 C 
BRANCH  43  44
ATOM     44  CG  TRP A   2      73.004  31.926  -5.037  0.00  0.00    -0.002 A 
ATOM     45  CD2 TRP A   2      72.861  33.339  -5.288  0.00  0.00    +0.013 A 
ATOM     46  CE3 TRP A   2      72.944  34.489  -4.487  0.00  0.00    +0.001 A 
ATOM     47  CZ3 TRP A   2      72.755  35.729  -5.071  0.00  0.00    +0.000 A 
ATOM     48  CH2 TRP A   2      72.430  35.839  -6.457  0.00  0.00    +0.001 A 
ATOM     49  CZ2 TRP A   2      72.314  34.728  -7.247  0.00  0.00    +0.017 A 
ATOM     50  CE2 TRP A   2      72.546  33.483  -6.656  0.00  0.00    +0.056 A 
ATOM     51  NE1 TRP A   2      72.516  32.220  -7.200  0.00  0.00    -0.352 N 
ATOM     52  HE1 TRP A   2      72.323  32.002  -8.198  0.00  0.00    +0.166 HD
ATOM     53  CD1 TRP A   2      72.777  31.299  -6.233  0.00  0.00    +0.068 A 
ENDBRANCH  43  44
ENDBRANCH  34  43
ENDBRANCH  27  34
ENDBRANCH  23  30
ENDBRANCH  22  25
BRANCH  22  54
ATOM     54  CB  PHE A   4      66.616  31.598  -0.420  0.00  0.00    +0.055 C 
BRANCH  54  55
ATOM     55  CG  PHE A   4      66.194  32.370  -1.638  0.00  0.00    -0.020 A 
ATOM     56  CD2 PHE A   4      65.652  33.652  -1.509  0.00  0.00    -0.004 A 
ATOM     57  CE2 PHE A   4      65.317  34.397  -2.645  0.00  0.00    -0.000 A 
ATOM     58  CZ  PHE A   4      65.477  33.841  -3.905  0.00  0.00    -0.000 A 
ATOM     59  CE1 PHE A   4      66.022  32.575  -4.031  0.00  0.00    -0.000 A 
ATOM     60  CD1 PHE A   4      66.367  31.845  -2.907  0.00  0.00    -0.004 A 
ENDBRANCH  54  55
ENDBRANCH  22  54
ENDBRANCH  18  22
ENDBRANCH  17  20
BRANCH  17  61
ATOM     61  CB  LEU A   5      71.442  29.652   2.042  0.00  0.00    +0.029 C 
BRANCH  61  62
ATOM     62  CG  LEU A   5      71.448  28.876   0.695  0.00  0.00    +0.002 C 
ATOM     63  CD2 LEU A   5      70.476  27.702   0.726  0.00  0.00    +0.000 C 
ATOM     64  CD1 LEU A   5      72.872  28.397   0.409  0.00  0.00    +0.000 C 
ENDBRANCH  61  62
ENDBRANCH  17  61
ENDBRANCH  13  17
ENDBRANCH  12  15
BRANCH  12  65
ATOM     65  CB  LEU A   6      71.883  33.233   5.579  0.00  0.00    +0.029 C 
BRANCH  65  66
ATOM     66  CG  LEU A   6      72.962  32.171   5.621  0.00  0.00    +0.002 C 
ATOM     67  CD2 LEU A   6      72.707  31.271   6.832  0.00  0.00    +0.000 C 
ATOM     68  CD1 LEU A   6      74.339  32.863   5.672  0.00  0.00    +0.000 C 
ENDBRANCH  65  66
ENDBRANCH  12  65
ENDBRANCH   5  12
ENDBRANCH   1  10
BRANCH   3  69
ATOM     69  CA  VAL A   8      68.936  38.777   4.468  0.00  0.00    +0.149 C 
BRANCH  69  70
ATOM     70  C   VAL A   8      69.611  39.635   5.509  0.00  0.00    +0.241 C 
ATOM     71  O   VAL A   8      69.060  39.893   6.589  0.00  0.00    -0.273 OA
ATOM     72  N   ASN A   9      70.836  40.013   5.210  0.00  0.00    -0.297 N 
ATOM     73  H   ASN A   9      71.214  39.835   4.258  0.00  0.00    +0.150 HD
BRANCH  72  74
ATOM     74  CA  ASN A   9      71.653  40.670   6.192  0.00  0.00    +0.158 C 
BRANCH  74  75
ATOM     75  C   ASN A   9      71.156  42.094   6.481  0.00  0.00    +0.241 C 
ATOM     76  N   LEU A  10      70.494  42.269   7.621  0.00  0.00    -0.297 N 
ATOM     77  H   LEU A  10      70.464  41.503   8.323  0.00  0.00    +0.150 HD
ATOM     78  O   ASN A   9      71.347  43.013   5.663  0.00  0.00    -0.273 OA
BRANCH  76  79
ATOM     79  CA  LEU A  10      69.804  43.538   7.896  0.00  0.00    +0.149 C 
BRANCH  79  80
ATOM     80  C   LEU A  10      70.749  44.713   8.138  0.00  0.00    +0.241 C 
ATOM     81  N   LYS A  11      71.999  44.406   8.473  0.00  0.00    -0.297 N 
ATOM     82  H   LYS A  11      72.271  43.406   8.560  0.00  0.00    +0.150 HD
ATOM     83  O   LEU A  10      70.340  45.884   8.037  0.00  0.00    -0.273 OA
BRANCH  81  84
ATOM     84  CA  LYS A  11      72.995  45.437   8.721  0.00  0.00    +0.149 C 
BRANCH  84  85
ATOM     85  C   LYS A  11      73.506  45.996   7.416  0.00  0.00    +0.241 C 
ATOM     86  O   LYS A  11      73.746  47.193   7.307  0.00  0.00    -0.273 OA
ATOM     87  N   LEU A  12      73.628  45.125   6.418  0.00  0.00    -0.297 N 
ATOM     88  H   LEU A  12      73.215  44.177   6.528  0.00  0.00    +0.150 HD
BRANCH  87  89
ATOM     89  CA  LEU A  12      74.314  45.446   5.184  0.00  0.00    +0.149 C 
BRANCH  89  90
ATOM     90  C   LEU A  12      73.376  45.820   4.060  0.00  0.00    +0.241 C 
ATOM     91  N   VAL A  13      72.077  45.582   4.239  0.00  0.00    -0.297 N 
ATOM     92  H   VAL A  13      71.733  45.277   5.172  0.00  0.00    +0.150 HD
ATOM     93  O   LEU A  12      73.828  46.295   3.024  0.00  0.00    -0.273 OA
BRANCH  91  94
ATOM     94  CA  VAL A  13      71.132  45.745   3.138  0.00  0.00    +0.149 C 
BRANCH  94  95
ATOM     95  C   VAL A  13      70.147  46.857   3.482  0.00  0.00    +0.244 C 
ATOM     96  O   VAL A  13      69.226  46.654   4.304  0.00  0.00    -0.273 OA
ATOM     97  N   PRO A  14      70.371  48.067   2.902  0.00  0.00    -0.273 N 
ATOM     98  CA  PRO A  14      69.504  49.209   3.216  0.00  0.00    +0.140 C 
ATOM     99  CB  PRO A  14      70.219  50.403   2.541  0.00  0.00    +0.030 C 
ATOM    100  CG  PRO A  14      70.994  49.786   1.430  0.00  0.00    +0.024 C 
ATOM    101  CD  PRO A  14      71.433  48.436   1.938  0.00  0.00    +0.094 C 
BRANCH  98 102
ATOM    102  C   PRO A  14      68.121  49.018   2.628  0.00  0.00    +0.227 C 
ATOM    103  O   PRO A  14      67.990  48.519   1.490  0.00  0.00    -0.286 OA
ENDBRANCH  98 102
ENDBRANCH  94  95
BRANCH  94 104
ATOM    104  CB  VAL A  13      70.380  44.423   2.784  0.00  0.00    +0.027 C 
ATOM    105  CG2 VAL A  13      71.370  43.280   2.546  0.00  0.00    +0.002 C 
ATOM    106  CG1 VAL A  13      69.508  44.624   1.556  0.00  0.00    +0.002 C 
ENDBRANCH  94 104
ENDBRANCH  91  94
ENDBRANCH  89  90
BRANCH  89 107
ATOM    107  CB  LEU A  12      75.175  44.253   4.729  0.00  0.00    +0.029 C 
BRANCH 107 108
ATOM    108  CG  LEU A  12      76.561  44.122   5.366  0.00  0.00    +0.002 C 
ATOM    109  CD2 LEU A  12      76.489  44.089   6.894  0.00  0.00    +0.000 C 
ATOM    110  CD1 LEU A  12      77.262  42.886   4.806  0.00  0.00    +0.000 C 
ENDBRANCH 107 108
ENDBRANCH  89 107
ENDBRANCH  87  89
ENDBRANCH  84  85
BRANCH  84 111
ATOM    111  CB  LYS A  11      74.166  44.867   9.533  0.00  0.00    +0.029 C 
BRANCH 111 112
ATOM    112  CG  LYS A  11      73.766  44.290  10.885  0.00  0.00    +0.000 C 
BRANCH 112 113
ATOM    113  CD  LYS A  11      72.978  45.290  11.723  0.00  0.00    -0.024 C 
BRANCH 113 114
ATOM    114  CE  LYS A  11      72.764  44.786  13.143  0.00  0.00    -0.086 C 
BRANCH 114 115
ATOM    115  NZ  LYS A  11      74.022  44.745  13.944  0.00  0.00    +0.380 N 
ATOM    116  HZ1 LYS A  11      73.812  44.394  14.900  0.00  0.00    -0.089 HD
ATOM    117  HZ2 LYS A  11      74.424  45.702  14.006  0.00  0.00    -0.089 HD
ATOM    118  HZ3 LYS A  11      74.705  44.110  13.483  0.00  0.00    -0.089 HD
ENDBRANCH 114 115
ENDBRANCH 113 114
ENDBRANCH 112 113
ENDBRANCH 111 112
ENDBRANCH  84 111
ENDBRANCH  81  84
ENDBRANCH  79  80
BRANCH  79 119
ATOM    119  CB  LEU A  10      68.857  43.396   9.089  0.00  0.00    +0.029 C 
BRANCH 119 120
ATOM    120  CG  LEU A  10      67.642  42.467   8.950  0.00  0.00    +0.002 C 
ATOM    121  CD2 LEU A  10      66.734  42.669  10.155  0.00  0.00    +0.000 C 
ATOM    122  CD1 LEU A  10      66.859  42.680   7.657  0.00  0.00    +0.000 C 
ENDBRANCH 119 120
ENDBRANCH  79 119
ENDBRANCH  76  79
ENDBRANCH  74  75
BRANCH  74 123
ATOM    123  CB  ASN A   9      73.075  40.674   5.693  0.00  0.00    +0.114 C 
BRANCH 123 124
ATOM    124  CG  ASN A   9      74.045  41.223   6.723  0.00  0.00    +0.222 C 
ATOM    125  OD1 ASN A   9      73.688  42.055   7.566  0.00  0.00    -0.275 OA
ATOM    126  ND2 ASN A   9      75.276  40.745   6.666  0.00  0.00    -0.329 N 
ATOM    127 HD21 ASN A   9      75.991  41.068   7.349  0.00  0.00    +0.145 HD
ATOM    128 HD22 ASN A   9      75.529  40.046   5.939  0.00  0.00    +0.145 HD
ENDBRANCH 123 124
ENDBRANCH  74 123
ENDBRANCH  72  74
ENDBRANCH  69  70
BRANCH  69 129
ATOM    129  CB  VAL A   8      67.898  39.595   3.739  0.00  0.00    +0.027 C 
ATOM    130  CG2 VAL A   8      68.501  40.935   3.208  0.00  0.00    +0.002 C 
ATOM    131  CG1 VAL A   8      67.267  38.766   2.640  0.00  0.00    +0.002 C 
ENDBRANCH  69 129
ENDBRANCH   3  69
TORSDOF 46
REMARK  Name = ../refined-set-2016/4rvr/4rvr_pocket.pdb
REMARK  111 active torsions:
REMARK  status: ('A' for Active; 'I' for Inactive)
REMARK    1  A    between atoms: _1  and  _3
REMARK    2  A    between atoms: _3  and  _4
REMARK    3  A    between atoms: _7  and  _9
REMARK    4  A    between atoms: _9  and  _10
REMARK    5  A    between atoms: _9  and  _12
REMARK    6  A    between atoms: _12  and  _13
REMARK    7  A    between atoms: _24  and  _25
REMARK    8  A    between atoms: _30  and  _32
REMARK    9  A    between atoms: _32  and  _33
REMARK   10  A    between atoms: _32  and  _35
REMARK   11  A    between atoms: _35  and  _36
REMARK   12  A    between atoms: _42  and  _44
REMARK   13  A    between atoms: _44  and  _45
REMARK   14  A    between atoms: _44  and  _47
REMARK   15  A    between atoms: _47  and  _48
REMARK   16  A    between atoms: _51  and  _53
REMARK   17  A    between atoms: _53  and  _54
REMARK   18  A    between atoms: _53  and  _56
REMARK   19  A    between atoms: _56  and  _57
REMARK   20  A    between atoms: _61  and  _62
REMARK   21  A    between atoms: _67  and  _69
REMARK   22  A    between atoms: _69  and  _70
REMARK   23  A    between atoms: _69  and  _72
REMARK   24  A    between atoms: _75  and  _77
REMARK   25  A    between atoms: _77  and  _78
REMARK   26  A    between atoms: _77  and  _80
REMARK   27  A    between atoms: _80  and  _81
REMARK   28  A    between atoms: _86  and  _88
REMARK   29  A    between atoms: _88  and  _89
REMARK   30  A    between atoms: _88  and  _91
REMARK   31  A    between atoms: _91  and  _92
REMARK   32  A    between atoms: _95  and  _97
REMARK   33  A    between atoms: _97  and  _98
REMARK   34  A    between atoms: _97  and  _100
REMARK   35  A    between atoms: _100  and  _101
REMARK   36  A    between atoms: _101  and  _102
REMARK   37  A    between atoms: _102  and  _103
REMARK   38  A    between atoms: _103  and  _104
REMARK   39  A    between atoms: _108  and  _110
REMARK   40  A    between atoms: _110  and  _111
REMARK   41  A    between atoms: _110  and  _113
REMARK   42  A    between atoms: _113  and  _114
REMARK   43  A    between atoms: _117  and  _119
REMARK   44  A    between atoms: _119  and  _120
REMARK   45  A    between atoms: _119  and  _122
REMARK   46  A    between atoms: _126  and  _127
REMARK   47  A    between atoms: _132  and  _134
REMARK   48  A    between atoms: _134  and  _135
REMARK   49  A    between atoms: _134  and  _137
REMARK   50  A    between atoms: _137  and  _138
REMARK   51  A    between atoms: _143  and  _144
REMARK   52  A    between atoms: _146  and  _148
REMARK   53  A    between atoms: _148  and  _149
REMARK   54  A    between atoms: _148  and  _151
REMARK   55  A    between atoms: _151  and  _152
REMARK   56  A    between atoms: _155  and  _157
REMARK   57  A    between atoms: _157  and  _158
REMARK   58  A    between atoms: _157  and  _160
REMARK   59  A    between atoms: _160  and  _161
REMARK   60  A    between atoms: _161  and  _162
REMARK   61  A    between atoms: _164  and  _166
REMARK   62  A    between atoms: _166  and  _167
REMARK   63  A    between atoms: _166  and  _169
REMARK   64  A    between atoms: _169  and  _170
REMARK   65  A    between atoms: _173  and  _175
REMARK   66  A    between atoms: _175  and  _176
REMARK   67  A    between atoms: _175  and  _178
REMARK   68  A    between atoms: _178  and  _179
REMARK   69  A    between atoms: _185  and  _187
REMARK   70  A    between atoms: _187  and  _188
REMARK   71  A    between atoms: _187  and  _190
REMARK   72  A    between atoms: _190  and  _191
REMARK   73  A    between atoms: _193  and  _195
REMARK   74  A    between atoms: _195  and  _196
REMARK   75  A    between atoms: _195  and  _198
REMARK   76  A    between atoms: _201  and  _203
REMARK   77  A    between atoms: _203  and  _204
REMARK   78  A    between atoms: _203  and  _206
REMARK   79  A    between atoms: _206  and  _207
REMARK   80  A    between atoms: _213  and  _215
REMARK   81  A    between atoms: _215  and  _216
REMARK   82  A    between atoms: _215  and  _218
REMARK   83  A    between atoms: _218  and  _219
REMARK   84  A    between atoms: _224  and  _226
REMARK   85  A    between atoms: _226  and  _227
REMARK   86  A    between atoms: _226  and  _229
REMARK   87  A    between atoms: _231  and  _233
REMARK   88  A    between atoms: _233  and  _234
REMARK   89  A    between atoms: _233  and  _236
REMARK   90  A    between atoms: _236  and  _237
REMARK   91  A    between atoms: _237  and  _238
REMARK   92  A    between atoms: _241  and  _243
REMARK   93  A    between atoms: _243  and  _244
REMARK   94  A    between atoms: _243  and  _246
REMARK   95  A    between atoms: _246  and  _247
REMARK   96  A    between atoms: _250  and  _252
REMARK   97  A    between atoms: _252  and  _253
REMARK   98  A    between atoms: _252  and  _255
REMARK   99  A    between atoms: _255  and  _256
REMARK  100  A    between atoms: _262  and  _264
REMARK  101  A    between atoms: _264  and  _265
REMARK  102  A    between atoms: _264  and  _267
REMARK  103  A    between atoms: _267  and  _268
REMARK  104  A    between atoms: _273  and  _275
REMARK  105  A    between atoms: _275  and  _276
REMARK  106  A    between atoms: _275  and  _278
REMARK  107  A    between atoms: _278  and  _279
REMARK  108  A    between atoms: _282  and  _284
REMARK  109  A    between atoms: _284  and  _285
REMARK  110  A    between atoms: _287  and  _289
REMARK  111  A    between atoms: _289  and  _290
REMARK                            x       y       z     vdW  Elec       q    Type
REMARK                         _______ _______ _______ _____ _____    ______ ____
ROOT
ATOM      1  CG  TYR A   1      65.606  43.232   3.581  0.00  0.00    -0.020 A 
ATOM      2  CD2 TYR A   1      65.015  42.374   4.510  0.00  0.00    -0.001 A 
ATOM      3  CE2 TYR A   1      64.339  41.202   4.095  0.00  0.00    +0.036 A 
ATOM      4  CZ  TYR A   1      64.209  40.936   2.709  0.00  0.00    +0.134 A 
ATOM      5  CE1 TYR A   1      64.761  41.813   1.783  0.00  0.00    +0.036 A 
ATOM      6  CD1 TYR A   1      65.439  42.962   2.231  0.00  0.00    -0.001 A 
ENDROOT
BRANCH   4   7
ATOM      7  OH  TYR A   1      63.524  39.799   2.263  0.00  0.00    -0.506 OA
ATOM      8  HH  TYR A   1      63.196  39.285   3.043  0.00  0.00    +0.292 HD
ENDBRANCH   4   7
BRANCH   1   9
ATOM      9  CB  TYR A   1      66.278  44.518   4.026  0.00  0.00    +0.051 C 
BRANCH   9  10
ATOM     10  CA  TYR A   1      65.232  45.657   4.005  0.00  0.00    +0.137 C 
BRANCH  10  11
ATOM     11  N   TYR A   1      65.839  47.002   3.835  0.00  0.00    -0.239 NA
ATOM     12  H   TYR A   1      66.873  47.110   3.847  0.00  0.00    +0.142 HD
ENDBRANCH  10  11
BRANCH  10  13
ATOM     13  C   TYR A   1      64.358  45.571   5.218  0.00  0.00    +0.224 C 
ATOM     14  O   TYR A   1      63.150  45.281   5.129  0.00  0.00    -0.287 OA
ENDBRANCH  10  13
ENDBRANCH   9  10
ENDBRANCH   1   9
TORSDOF 5
REMARK  Name = ../refined-set-2016/4rvr/4rvr_pocket.pdb
REMARK  111 active torsions:
REMARK  status: ('A' for Active; 'I' for Inactive)
REMARK    1  A    between atoms: _1  and  _3
REMARK    2  A    between atoms: _3  and  _4
REMARK    3  A    between atoms: _7  and  _9
REMARK    4  A    between atoms: _9  and  _10
REMARK    5  A    between atoms: _9  and  _12
REMARK    6  A    between atoms: _12  and  _13
REMARK    7  A    between atoms: _24  and  _25
REMARK    8  A    between atoms: _30  and  _32
REMARK    9  A    between atoms: _32  and  _33
REMARK   10  A    between atoms: _32  and  _35
REMARK   11  A    between atoms: _35  and  _36
REMARK   12  A    between atoms: _42  and  _44
REMARK   13  A    between atoms: _44  and  _45
REMARK   14  A    between atoms: _44  and  _47
REMARK   15  A    between atoms: _47  and  _48
REMARK   16  A    between atoms: _51  and  _53
REMARK   17  A    between atoms: _53  and  _54
REMARK   18  A    between atoms: _53  and  _56
REMARK   19  A    between atoms: _56  and  _57
REMARK   20  A    between atoms: _61  and  _62
REMARK   21  A    between atoms: _67  and  _69
REMARK   22  A    between atoms: _69  and  _70
REMARK   23  A    between atoms: _69  and  _72
REMARK   24  A    between atoms: _75  and  _77
REMARK   25  A    between atoms: _77  and  _78
REMARK   26  A    between atoms: _77  and  _80
REMARK   27  A    between atoms: _80  and  _81
REMARK   28  A    between atoms: _86  and  _88
REMARK   29  A    between atoms: _88  and  _89
REMARK   30  A    between atoms: _88  and  _91
REMARK   31  A    between atoms: _91  and  _92
REMARK   32  A    between atoms: _95  and  _97
REMARK   33  A    between atoms: _97  and  _98
REMARK   34  A    between atoms: _97  and  _100
REMARK   35  A    between atoms: _100  and  _101
REMARK   36  A    between atoms: _101  and  _102
REMARK   37  A    between atoms: _102  and  _103
REMARK   38  A    between atoms: _103  and  _104
REMARK   39  A    between atoms: _108  and  _110
REMARK   40  A    between atoms: _110  and  _111
REMARK   41  A    between atoms: _110  and  _113
REMARK   42  A    between atoms: _113  and  _114
REMARK   43  A    between atoms: _117  and  _119
REMARK   44  A    between atoms: _119  and  _120
REMARK   45  A    between atoms: _119  and  _122
REMARK   46  A    between atoms: _126  and  _127
REMARK   47  A    between atoms: _132  and  _134
REMARK   48  A    between atoms: _134  and  _135
REMARK   49  A    between atoms: _134  and  _137
REMARK   50  A    between atoms: _137  and  _138
REMARK   51  A    between atoms: _143  and  _144
REMARK   52  A    between atoms: _146  and  _148
REMARK   53  A    between atoms: _148  and  _149
REMARK   54  A    between atoms: _148  and  _151
REMARK   55  A    between atoms: _151  and  _152
REMARK   56  A    between atoms: _155  and  _157
REMARK   57  A    between atoms: _157  and  _158
REMARK   58  A    between atoms: _157  and  _160
REMARK   59  A    between atoms: _160  and  _161
REMARK   60  A    between atoms: _161  and  _162
REMARK   61  A    between atoms: _164  and  _166
REMARK   62  A    between atoms: _166  and  _167
REMARK   63  A    between atoms: _166  and  _169
REMARK   64  A    between atoms: _169  and  _170
REMARK   65  A    between atoms: _173  and  _175
REMARK   66  A    between atoms: _175  and  _176
REMARK   67  A    between atoms: _175  and  _178
REMARK   68  A    between atoms: _178  and  _179
REMARK   69  A    between atoms: _185  and  _187
REMARK   70  A    between atoms: _187  and  _188
REMARK   71  A    between atoms: _187  and  _190
REMARK   72  A    between atoms: _190  and  _191
REMARK   73  A    between atoms: _193  and  _195
REMARK   74  A    between atoms: _195  and  _196
REMARK   75  A    between atoms: _195  and  _198
REMARK   76  A    between atoms: _201  and  _203
REMARK   77  A    between atoms: _203  and  _204
REMARK   78  A    between atoms: _203  and  _206
REMARK   79  A    between atoms: _206  and  _207
REMARK   80  A    between atoms: _213  and  _215
REMARK   81  A    between atoms: _215  and  _216
REMARK   82  A    between atoms: _215  and  _218
REMARK   83  A    between atoms: _218  and  _219
REMARK   84  A    between atoms: _224  and  _226
REMARK   85  A    between atoms: _226  and  _227
REMARK   86  A    between atoms: _226  and  _229
REMARK   87  A    between atoms: _231  and  _233
REMARK   88  A    between atoms: _233  and  _234
REMARK   89  A    between atoms: _233  and  _236
REMARK   90  A    between atoms: _236  and  _237
REMARK   91  A    between atoms: _237  and  _238
REMARK   92  A    between atoms: _241  and  _243
REMARK   93  A    between atoms: _243  and  _244
REMARK   94  A    between atoms: _243  and  _246
REMARK   95  A    between atoms: _246  and  _247
REMARK   96  A    between atoms: _250  and  _252
REMARK   97  A    between atoms: _252  and  _253
REMARK   98  A    between atoms: _252  and  _255
REMARK   99  A    between atoms: _255  and  _256
REMARK  100  A    between atoms: _262  and  _264
REMARK  101  A    between atoms: _264  and  _265
REMARK  102  A    between atoms: _264  and  _267
REMARK  103  A    between atoms: _267  and  _268
REMARK  104  A    between atoms: _273  and  _275
REMARK  105  A    between atoms: _275  and  _276
REMARK  106  A    between atoms: _275  and  _278
REMARK  107  A    between atoms: _278  and  _279
REMARK  108  A    between atoms: _282  and  _284
REMARK  109  A    between atoms: _284  and  _285
REMARK  110  A    between atoms: _287  and  _289
REMARK  111  A    between atoms: _289  and  _290
REMARK                            x       y       z     vdW  Elec       q    Type
REMARK                         _______ _______ _______ _____ _____    ______ ____
ROOT
ATOM      1  CA  ILE A   1      60.088  43.717   4.544  0.00  0.00    +0.133 C 
ENDROOT
BRANCH   1   2
ATOM      2  N   ILE A   1      60.539  45.154   4.484  0.00  0.00    -0.239 NA
ATOM      3  H   ILE A   1      61.497  45.412   4.797  0.00  0.00    +0.142 HD
ENDBRANCH   1   2
BRANCH   1   4
ATOM      4  C   ILE A   1      59.710  43.382   5.972  0.00  0.00    +0.224 C 
ATOM      5  O   ILE A   1      60.565  43.187   6.821  0.00  0.00    -0.287 OA
ENDBRANCH   1   4
BRANCH   1   6
ATOM      6  CB  ILE A   1      61.159  42.755   3.995  0.00  0.00    +0.023 C 
ATOM      7  CG2 ILE A   1      60.680  41.276   4.129  0.00  0.00    +0.002 C 
BRANCH   6   8
ATOM      8  CG1 ILE A   1      61.460  43.092   2.522  0.00  0.00    +0.002 C 
ATOM      9  CD1 ILE A   1      60.290  42.929   1.563  0.00  0.00    +0.000 C 
ENDBRANCH   6   8
ENDBRANCH   1   6
TORSDOF 4
REMARK  Name = ../refined-set-2016/4rvr/4rvr_pocket.pdb
REMARK  111 active torsions:
REMARK  status: ('A' for Active; 'I' for Inactive)
REMARK    1  A    between atoms: _1  and  _3
REMARK    2  A    between atoms: _3  and  _4
REMARK    3  A    between atoms: _7  and  _9
REMARK    4  A    between atoms: _9  and  _10
REMARK    5  A    between atoms: _9  and  _12
REMARK    6  A    between atoms: _12  and  _13
REMARK    7  A    between atoms: _24  and  _25
REMARK    8  A    between atoms: _30  and  _32
REMARK    9  A    between atoms: _32  and  _33
REMARK   10  A    between atoms: _32  and  _35
REMARK   11  A    between atoms: _35  and  _36
REMARK   12  A    between atoms: _42  and  _44
REMARK   13  A    between atoms: _44  and  _45
REMARK   14  A    between atoms: _44  and  _47
REMARK   15  A    between atoms: _47  and  _48
REMARK   16  A    between atoms: _51  and  _53
REMARK   17  A    between atoms: _53  and  _54
REMARK   18  A    between atoms: _53  and  _56
REMARK   19  A    between atoms: _56  and  _57
REMARK   20  A    between atoms: _61  and  _62
REMARK   21  A    between atoms: _67  and  _69
REMARK   22  A    between atoms: _69  and  _70
REMARK   23  A    between atoms: _69  and  _72
REMARK   24  A    between atoms: _75  and  _77
REMARK   25  A    between atoms: _77  and  _78
REMARK   26  A    between atoms: _77  and  _80
REMARK   27  A    between atoms: _80  and  _81
REMARK   28  A    between atoms: _86  and  _88
REMARK   29  A    between atoms: _88  and  _89
REMARK   30  A    between atoms: _88  and  _91
REMARK   31  A    between atoms: _91  and  _92
REMARK   32  A    between atoms: _95  and  _97
REMARK   33  A    between atoms: _97  and  _98
REMARK   34  A    between atoms: _97  and  _100
REMARK   35  A    between atoms: _100  and  _101
REMARK   36  A    between atoms: _101  and  _102
REMARK   37  A    between atoms: _102  and  _103
REMARK   38  A    between atoms: _103  and  _104
REMARK   39  A    between atoms: _108  and  _110
REMARK   40  A    between atoms: _110  and  _111
REMARK   41  A    between atoms: _110  and  _113
REMARK   42  A    between atoms: _113  and  _114
REMARK   43  A    between atoms: _117  and  _119
REMARK   44  A    between atoms: _119  and  _120
REMARK   45  A    between atoms: _119  and  _122
REMARK   46  A    between atoms: _126  and  _127
REMARK   47  A    between atoms: _132  and  _134
REMARK   48  A    between atoms: _134  and  _135
REMARK   49  A    between atoms: _134  and  _137
REMARK   50  A    between atoms: _137  and  _138
REMARK   51  A    between atoms: _143  and  _144
REMARK   52  A    between atoms: _146  and  _148
REMARK   53  A    between atoms: _148  and  _149
REMARK   54  A    between atoms: _148  and  _151
REMARK   55  A    between atoms: _151  and  _152
REMARK   56  A    between atoms: _155  and  _157
REMARK   57  A    between atoms: _157  and  _158
REMARK   58  A    between atoms: _157  and  _160
REMARK   59  A    between atoms: _160  and  _161
REMARK   60  A    between atoms: _161  and  _162
REMARK   61  A    between atoms: _164  and  _166
REMARK   62  A    between atoms: _166  and  _167
REMARK   63  A    between atoms: _166  and  _169
REMARK   64  A    between atoms: _169  and  _170
REMARK   65  A    between atoms: _173  and  _175
REMARK   66  A    between atoms: _175  and  _176
REMARK   67  A    between atoms: _175  and  _178
REMARK   68  A    between atoms: _178  and  _179
REMARK   69  A    between atoms: _185  and  _187
REMARK   70  A    between atoms: _187  and  _188
REMARK   71  A    between atoms: _187  and  _190
REMARK   72  A    between atoms: _190  and  _191
REMARK   73  A    between atoms: _193  and  _195
REMARK   74  A    between atoms: _195  and  _196
REMARK   75  A    between atoms: _195  and  _198
REMARK   76  A    between atoms: _201  and  _203
REMARK   77  A    between atoms: _203  and  _204
REMARK   78  A    between atoms: _203  and  _206
REMARK   79  A    between atoms: _206  and  _207
REMARK   80  A    between atoms: _213  and  _215
REMARK   81  A    between atoms: _215  and  _216
REMARK   82  A    between atoms: _215  and  _218
REMARK   83  A    between atoms: _218  and  _219
REMARK   84  A    between atoms: _224  and  _226
REMARK   85  A    between atoms: _226  and  _227
REMARK   86  A    between atoms: _226  and  _229
REMARK   87  A    between atoms: _231  and  _233
REMARK   88  A    between atoms: _233  and  _234
REMARK   89  A    between atoms: _233  and  _236
REMARK   90  A    between atoms: _236  and  _237
REMARK   91  A    between atoms: _237  and  _238
REMARK   92  A    between atoms: _241  and  _243
REMARK   93  A    between atoms: _243  and  _244
REMARK   94  A    between atoms: _243  and  _246
REMARK   95  A    between atoms: _246  and  _247
REMARK   96  A    between atoms: _250  and  _252
REMARK   97  A    between atoms: _252  and  _253
REMARK   98  A    between atoms: _252  and  _255
REMARK   99  A    between atoms: _255  and  _256
REMARK  100  A    between atoms: _262  and  _264
REMARK  101  A    between atoms: _264  and  _265
REMARK  102  A    between atoms: _264  and  _267
REMARK  103  A    between atoms: _267  and  _268
REMARK  104  A    between atoms: _273  and  _275
REMARK  105  A    between atoms: _275  and  _276
REMARK  106  A    between atoms: _275  and  _278
REMARK  107  A    between atoms: _278  and  _279
REMARK  108  A    between atoms: _282  and  _284
REMARK  109  A    between atoms: _284  and  _285
REMARK  110  A    between atoms: _287  and  _289
REMARK  111  A    between atoms: _289  and  _290
REMARK                            x       y       z     vdW  Elec       q    Type
REMARK                         _______ _______ _______ _____ _____    ______ ____
ROOT
ATOM      1  C   ASP A   2      64.718  30.827   4.864  0.00  0.00    +0.241 C 
ATOM      2  O   ASP A   2      64.066  30.372   5.835  0.00  0.00    -0.273 OA
ATOM      3  N   PHE A   3      65.471  30.053   4.061  0.00  0.00    -0.297 N 
ATOM      4  H   PHE A   3      66.086  30.488   3.344  0.00  0.00    +0.150 HD
ENDROOT
BRANCH   1   5
ATOM      5  CA  ASP A   2      64.720  32.311   4.581  0.00  0.00    +0.160 C 
BRANCH   5   7
ATOM      6  C   MET A   1      63.045  34.074   5.005  0.00  0.00    +0.238 C 
ATOM      7  N   ASP A   2      63.679  32.954   5.386  0.00  0.00    -0.297 N 
ATOM      8  H   ASP A   2      63.419  32.522   6.296  0.00  0.00    +0.150 HD
ATOM      9  O   MET A   1      63.352  34.740   3.985  0.00  0.00    -0.274 OA
BRANCH   6  10
ATOM     10  CA  MET A   1      61.989  34.602   5.950  0.00  0.00    +0.146 C 
BRANCH  10  11
ATOM     11  N   MET A   1      61.924  36.057   5.812  0.00  0.00    -0.238 NA
ATOM     12  H   MET A   1      62.146  36.503   4.899  0.00  0.00    +0.142 HD
ENDBRANCH  10  11
BRANCH  10  13
ATOM     13  CB  MET A   1      60.599  34.003   5.689  0.00  0.00    +0.038 C 
BRANCH  13  14
ATOM     14  CG  MET A   1      60.468  32.512   5.984  0.00  0.00    +0.060 C 
BRANCH  14  15
ATOM     15  SD  MET A   1      61.012  31.975   7.643  0.00  0.00    -0.139 S 
ATOM     16  CE  MET A   1      59.940  33.055   8.630  0.00  0.00    +0.069 C 
ENDBRANCH  14  15
ENDBRANCH  13  14
ENDBRANCH  10  13
ENDBRANCH   6  10
ENDBRANCH   5   7
BRANCH   5  17
ATOM     17  CB  ASP A   2      66.093  32.899   4.865  0.00  0.00    +0.143 C 
BRANCH  17  18
ATOM     18  CG  ASP A   2      66.605  32.473   6.203  0.00  0.00    +0.367 C 
ATOM     19  OD2 ASP A   2      66.069  32.952   7.214  0.00  0.00    -0.246 OA
ATOM     20  OD1 ASP A   2      67.476  31.620   6.231  0.00  0.00    -0.246 OA
ENDBRANCH  17  18
ENDBRANCH   5  17
ENDBRANCH   1   5
BRANCH   3  21
ATOM     21  CA  PHE A   3      65.420  28.564   4.204  0.00  0.00    +0.153 C 
BRANCH  21  22
ATOM     22  C   PHE A   3      65.982  28.081   5.545  0.00  0.00    +0.241 C 
ATOM     23  N   SER A   4      67.036  28.708   6.070  0.00  0.00    -0.296 N 
ATOM     24  H   SER A   4      67.477  29.498   5.557  0.00  0.00    +0.150 HD
ATOM     25  O   PHE A   3      65.496  27.108   6.057  0.00  0.00    -0.273 OA
BRANCH  23  26
ATOM     26  CA  SER A   4      67.581  28.284   7.382  0.00  0.00    +0.166 C 
BRANCH  26  27
ATOM     27  C   SER A   4      66.593  28.465   8.523  0.00  0.00    +0.229 C 
ATOM     28  O   SER A   4      66.559  27.647   9.466  0.00  0.00    -0.286 OA
ENDBRANCH  26  27
BRANCH  26  29
ATOM     29  CB  SER A   4      68.908  28.992   7.732  0.00  0.00    +0.165 C 
BRANCH  29  30
ATOM     30  OG  SER A   4      68.738  30.377   8.029  0.00  0.00    -0.380 OA
ATOM     31  H   SER A   4      68.349  30.837   7.243  0.00  0.00    +0.211 HD
ENDBRANCH  29  30
ENDBRANCH  26  29
ENDBRANCH  23  26
ENDBRANCH  21  22
BRANCH  21  32
ATOM     32  CB  PHE A   3      66.177  27.838   3.085  0.00  0.00    +0.055 C 
BRANCH  32  33
ATOM     33  CG  PHE A   3      65.596  28.044   1.683  0.00  0.00    -0.020 A 
ATOM     34  CD2 PHE A   3      64.296  28.582   1.482  0.00  0.00    -0.004 A 
ATOM     35  CE2 PHE A   3      63.791  28.766   0.210  0.00  0.00    -0.000 A 
ATOM     36  CZ  PHE A   3      64.538  28.388  -0.881  0.00  0.00    -0.000 A 
ATOM     37  CE1 PHE A   3      65.804  27.844  -0.701  0.00  0.00    -0.000 A 
ATOM     38  CD1 PHE A   3      66.307  27.660   0.595  0.00  0.00    -0.004 A 
ENDBRANCH  32  33
ENDBRANCH  21  32
ENDBRANCH   3  21
TORSDOF 17
REMARK  Name = ../refined-set-2016/4rvr/4rvr_pocket.pdb
REMARK  111 active torsions:
REMARK  status: ('A' for Active; 'I' for Inactive)
REMARK    1  A    between atoms: _1  and  _3
REMARK    2  A    between atoms: _3  and  _4
REMARK    3  A    between atoms: _7  and  _9
REMARK    4  A    between atoms: _9  and  _10
REMARK    5  A    between atoms: _9  and  _12
REMARK    6  A    between atoms: _12  and  _13
REMARK    7  A    between atoms: _24  and  _25
REMARK    8  A    between atoms: _30  and  _32
REMARK    9  A    between atoms: _32  and  _33
REMARK   10  A    between atoms: _32  and  _35
REMARK   11  A    between atoms: _35  and  _36
REMARK   12  A    between atoms: _42  and  _44
REMARK   13  A    between atoms: _44  and  _45
REMARK   14  A    between atoms: _44  and  _47
REMARK   15  A    between atoms: _47  and  _48
REMARK   16  A    between atoms: _51  and  _53
REMARK   17  A    between atoms: _53  and  _54
REMARK   18  A    between atoms: _53  and  _56
REMARK   19  A    between atoms: _56  and  _57
REMARK   20  A    between atoms: _61  and  _62
REMARK   21  A    between atoms: _67  and  _69
REMARK   22  A    between atoms: _69  and  _70
REMARK   23  A    between atoms: _69  and  _72
REMARK   24  A    between atoms: _75  and  _77
REMARK   25  A    between atoms: _77  and  _78
REMARK   26  A    between atoms: _77  and  _80
REMARK   27  A    between atoms: _80  and  _81
REMARK   28  A    between atoms: _86  and  _88
REMARK   29  A    between atoms: _88  and  _89
REMARK   30  A    between atoms: _88  and  _91
REMARK   31  A    between atoms: _91  and  _92
REMARK   32  A    between atoms: _95  and  _97
REMARK   33  A    between atoms: _97  and  _98
REMARK   34  A    between atoms: _97  and  _100
REMARK   35  A    between atoms: _100  and  _101
REMARK   36  A    between atoms: _101  and  _102
REMARK   37  A    between atoms: _102  and  _103
REMARK   38  A    between atoms: _103  and  _104
REMARK   39  A    between atoms: _108  and  _110
REMARK   40  A    between atoms: _110  and  _111
REMARK   41  A    between atoms: _110  and  _113
REMARK   42  A    between atoms: _113  and  _114
REMARK   43  A    between atoms: _117  and  _119
REMARK   44  A    between atoms: _119  and  _120
REMARK   45  A    between atoms: _119  and  _122
REMARK   46  A    between atoms: _126  and  _127
REMARK   47  A    between atoms: _132  and  _134
REMARK   48  A    between atoms: _134  and  _135
REMARK   49  A    between atoms: _134  and  _137
REMARK   50  A    between atoms: _137  and  _138
REMARK   51  A    between atoms: _143  and  _144
REMARK   52  A    between atoms: _146  and  _148
REMARK   53  A    between atoms: _148  and  _149
REMARK   54  A    between atoms: _148  and  _151
REMARK   55  A    between atoms: _151  and  _152
REMARK   56  A    between atoms: _155  and  _157
REMARK   57  A    between atoms: _157  and  _158
REMARK   58  A    between atoms: _157  and  _160
REMARK   59  A    between atoms: _160  and  _161
REMARK   60  A    between atoms: _161  and  _162
REMARK   61  A    between atoms: _164  and  _166
REMARK   62  A    between atoms: _166  and  _167
REMARK   63  A    between atoms: _166  and  _169
REMARK   64  A    between atoms: _169  and  _170
REMARK   65  A    between atoms: _173  and  _175
REMARK   66  A    between atoms: _175  and  _176
REMARK   67  A    between atoms: _175  and  _178
REMARK   68  A    between atoms: _178  and  _179
REMARK   69  A    between atoms: _185  and  _187
REMARK   70  A    between atoms: _187  and  _188
REMARK   71  A    between atoms: _187  and  _190
REMARK   72  A    between atoms: _190  and  _191
REMARK   73  A    between atoms: _193  and  _195
REMARK   74  A    between atoms: _195  and  _196
REMARK   75  A    between atoms: _195  and  _198
REMARK   76  A    between atoms: _201  and  _203
REMARK   77  A    between atoms: _203  and  _204
REMARK   78  A    between atoms: _203  and  _206
REMARK   79  A    between atoms: _206  and  _207
REMARK   80  A    between atoms: _213  and  _215
REMARK   81  A    between atoms: _215  and  _216
REMARK   82  A    between atoms: _215  and  _218
REMARK   83  A    between atoms: _218  and  _219
REMARK   84  A    between atoms: _224  and  _226
REMARK   85  A    between atoms: _226  and  _227
REMARK   86  A    between atoms: _226  and  _229
REMARK   87  A    between atoms: _231  and  _233
REMARK   88  A    between atoms: _233  and  _234
REMARK   89  A    between atoms: _233  and  _236
REMARK   90  A    between atoms: _236  and  _237
REMARK   91  A    between atoms: _237  and  _238
REMARK   92  A    between atoms: _241  and  _243
REMARK   93  A    between atoms: _243  and  _244
REMARK   94  A    between atoms: _243  and  _246
REMARK   95  A    between atoms: _246  and  _247
REMARK   96  A    between atoms: _250  and  _252
REMARK   97  A    between atoms: _252  and  _253
REMARK   98  A    between atoms: _252  and  _255
REMARK   99  A    between atoms: _255  and  _256
REMARK  100  A    between atoms: _262  and  _264
REMARK  101  A    between atoms: _264  and  _265
REMARK  102  A    between atoms: _264  and  _267
REMARK  103  A    between atoms: _267  and  _268
REMARK  104  A    between atoms: _273  and  _275
REMARK  105  A    between atoms: _275  and  _276
REMARK  106  A    between atoms: _275  and  _278
REMARK  107  A    between atoms: _278  and  _279
REMARK  108  A    between atoms: _282  and  _284
REMARK  109  A    between atoms: _284  and  _285
REMARK  110  A    between atoms: _287  and  _289
REMARK  111  A    between atoms: _289  and  _290
REMARK                            x       y       z     vdW  Elec       q    Type
REMARK                         _______ _______ _______ _____ _____    ______ ____
ROOT
ATOM      1  C   VAL A   1      60.489  34.486  -0.442  0.00  0.00    +0.238 C 
ATOM      2  O   VAL A   1      61.208  35.493  -0.751  0.00  0.00    -0.274 OA
ATOM      3  N   PHE A   2      59.641  33.925  -1.309  0.00  0.00    -0.298 N 
ATOM      4  H   PHE A   2      58.999  33.168  -0.998  0.00  0.00    +0.150 HD
ENDROOT
BRANCH   1   5
ATOM      5  CA  VAL A   1      60.510  33.882   0.980  0.00  0.00    +0.145 C 
BRANCH   5   6
ATOM      6  CB  VAL A   1      61.302  32.536   0.947  0.00  0.00    +0.025 C 
ATOM      7  CG2 VAL A   1      61.512  31.974   2.329  0.00  0.00    +0.002 C 
ATOM      8  CG1 VAL A   1      62.697  32.775   0.341  0.00  0.00    +0.002 C 
ENDBRANCH   5   6
BRANCH   5   9
ATOM      9  N   VAL A   1      59.145  33.688   1.509  0.00  0.00    -0.238 NA
ATOM     10  H   VAL A   1      58.873  32.750   1.867  0.00  0.00    +0.142 HD
ENDBRANCH   5   9
ENDBRANCH   1   5
BRANCH   3  11
ATOM     11  CA  PHE A   2      59.621  34.382  -2.696  0.00  0.00    +0.141 C 
BRANCH  11  12
ATOM     12  C   PHE A   2      58.827  35.666  -2.899  0.00  0.00    +0.227 C 
ATOM     13  O   PHE A   2      59.251  36.522  -3.694  0.00  0.00    -0.286 OA
ENDBRANCH  11  12
BRANCH  11  14
ATOM     14  CB  PHE A   2      59.205  33.251  -3.638  0.00  0.00    +0.054 C 
BRANCH  14  15
ATOM     15  CG  PHE A   2      59.980  31.981  -3.402  0.00  0.00    -0.020 A 
ATOM     16  CD2 PHE A   2      59.335  30.782  -3.241  0.00  0.00    -0.004 A 
ATOM     17  CE2 PHE A   2      60.081  29.610  -3.001  0.00  0.00    -0.000 A 
ATOM     18  CZ  PHE A   2      61.469  29.677  -2.902  0.00  0.00    -0.000 A 
ATOM     19  CE1 PHE A   2      62.115  30.882  -3.073  0.00  0.00    -0.000 A 
ATOM     20  CD1 PHE A   2      61.374  32.021  -3.331  0.00  0.00    -0.004 A 
ENDBRANCH  14  15
ENDBRANCH  11  14
ENDBRANCH   3  11
TORSDOF 7
REMARK  Name = ../refined-set-2016/4rvr/4rvr_pocket.pdb
REMARK  111 active torsions:
REMARK  status: ('A' for Active; 'I' for Inactive)
REMARK    1  A    between atoms: _1  and  _3
REMARK    2  A    between atoms: _3  and  _4
REMARK    3  A    between atoms: _7  and  _9
REMARK    4  A    between atoms: _9  and  _10
REMARK    5  A    between atoms: _9  and  _12
REMARK    6  A    between atoms: _12  and  _13
REMARK    7  A    between atoms: _24  and  _25
REMARK    8  A    between atoms: _30  and  _32
REMARK    9  A    between atoms: _32  and  _33
REMARK   10  A    between atoms: _32  and  _35
REMARK   11  A    between atoms: _35  and  _36
REMARK   12  A    between atoms: _42  and  _44
REMARK   13  A    between atoms: _44  and  _45
REMARK   14  A    between atoms: _44  and  _47
REMARK   15  A    between atoms: _47  and  _48
REMARK   16  A    between atoms: _51  and  _53
REMARK   17  A    between atoms: _53  and  _54
REMARK   18  A    between atoms: _53  and  _56
REMARK   19  A    between atoms: _56  and  _57
REMARK   20  A    between atoms: _61  and  _62
REMARK   21  A    between atoms: _67  and  _69
REMARK   22  A    between atoms: _69  and  _70
REMARK   23  A    between atoms: _69  and  _72
REMARK   24  A    between atoms: _75  and  _77
REMARK   25  A    between atoms: _77  and  _78
REMARK   26  A    between atoms: _77  and  _80
REMARK   27  A    between atoms: _80  and  _81
REMARK   28  A    between atoms: _86  and  _88
REMARK   29  A    between atoms: _88  and  _89
REMARK   30  A    between atoms: _88  and  _91
REMARK   31  A    between atoms: _91  and  _92
REMARK   32  A    between atoms: _95  and  _97
REMARK   33  A    between atoms: _97  and  _98
REMARK   34  A    between atoms: _97  and  _100
REMARK   35  A    between atoms: _100  and  _101
REMARK   36  A    between atoms: _101  and  _102
REMARK   37  A    between atoms: _102  and  _103
REMARK   38  A    between atoms: _103  and  _104
REMARK   39  A    between atoms: _108  and  _110
REMARK   40  A    between atoms: _110  and  _111
REMARK   41  A    between atoms: _110  and  _113
REMARK   42  A    between atoms: _113  and  _114
REMARK   43  A    between atoms: _117  and  _119
REMARK   44  A    between atoms: _119  and  _120
REMARK   45  A    between atoms: _119  and  _122
REMARK   46  A    between atoms: _126  and  _127
REMARK   47  A    between atoms: _132  and  _134
REMARK   48  A    between atoms: _134  and  _135
REMARK   49  A    between atoms: _134  and  _137
REMARK   50  A    between atoms: _137  and  _138
REMARK   51  A    between atoms: _143  and  _144
REMARK   52  A    between atoms: _146  and  _148
REMARK   53  A    between atoms: _148  and  _149
REMARK   54  A    between atoms: _148  and  _151
REMARK   55  A    between atoms: _151  and  _152
REMARK   56  A    between atoms: _155  and  _157
REMARK   57  A    between atoms: _157  and  _158
REMARK   58  A    between atoms: _157  and  _160
REMARK   59  A    between atoms: _160  and  _161
REMARK   60  A    between atoms: _161  and  _162
REMARK   61  A    between atoms: _164  and  _166
REMARK   62  A    between atoms: _166  and  _167
REMARK   63  A    between atoms: _166  and  _169
REMARK   64  A    between atoms: _169  and  _170
REMARK   65  A    between atoms: _173  and  _175
REMARK   66  A    between atoms: _175  and  _176
REMARK   67  A    between atoms: _175  and  _178
REMARK   68  A    between atoms: _178  and  _179
REMARK   69  A    between atoms: _185  and  _187
REMARK   70  A    between atoms: _187  and  _188
REMARK   71  A    between atoms: _187  and  _190
REMARK   72  A    between atoms: _190  and  _191
REMARK   73  A    between atoms: _193  and  _195
REMARK   74  A    between atoms: _195  and  _196
REMARK   75  A    between atoms: _195  and  _198
REMARK   76  A    between atoms: _201  and  _203
REMARK   77  A    between atoms: _203  and  _204
REMARK   78  A    between atoms: _203  and  _206
REMARK   79  A    between atoms: _206  and  _207
REMARK   80  A    between atoms: _213  and  _215
REMARK   81  A    between atoms: _215  and  _216
REMARK   82  A    between atoms: _215  and  _218
REMARK   83  A    between atoms: _218  and  _219
REMARK   84  A    between atoms: _224  and  _226
REMARK   85  A    between atoms: _226  and  _227
REMARK   86  A    between atoms: _226  and  _229
REMARK   87  A    between atoms: _231  and  _233
REMARK   88  A    between atoms: _233  and  _234
REMARK   89  A    between atoms: _233  and  _236
REMARK   90  A    between atoms: _236  and  _237
REMARK   91  A    between atoms: _237  and  _238
REMARK   92  A    between atoms: _241  and  _243
REMARK   93  A    between atoms: _243  and  _244
REMARK   94  A    between atoms: _243  and  _246
REMARK   95  A    between atoms: _246  and  _247
REMARK   96  A    between atoms: _250  and  _252
REMARK   97  A    between atoms: _252  and  _253
REMARK   98  A    between atoms: _252  and  _255
REMARK   99  A    between atoms: _255  and  _256
REMARK  100  A    between atoms: _262  and  _264
REMARK  101  A    between atoms: _264  and  _265
REMARK  102  A    between atoms: _264  and  _267
REMARK  103  A    between atoms: _267  and  _268
REMARK  104  A    between atoms: _273  and  _275
REMARK  105  A    between atoms: _275  and  _276
REMARK  106  A    between atoms: _275  and  _278
REMARK  107  A    between atoms: _278  and  _279
REMARK  108  A    between atoms: _282  and  _284
REMARK  109  A    between atoms: _284  and  _285
REMARK  110  A    between atoms: _287  and  _289
REMARK  111  A    between atoms: _289  and  _290
REMARK                            x       y       z     vdW  Elec       q    Type
REMARK                         _______ _______ _______ _____ _____    ______ ____
ROOT
ATOM      1  C   GLU A   3      59.505  41.423  -5.061  0.00  0.00    +0.241 C 
ATOM      2  N   THR A   4      59.164  41.614  -3.793  0.00  0.00    -0.295 N 
ATOM      3  H   THR A   4      59.046  40.787  -3.174  0.00  0.00    +0.150 HD
ATOM      4  O   GLU A   3      59.570  42.335  -5.879  0.00  0.00    -0.273 OA
ENDROOT
BRANCH   2   5
ATOM      5  CA  THR A   4      58.949  42.948  -3.237  0.00  0.00    +0.176 C 
BRANCH   5   6
ATOM      6  C   THR A   4      60.241  43.796  -3.228  0.00  0.00    +0.243 C 
ATOM      7  N   PHE A   5      61.377  43.162  -2.951  0.00  0.00    -0.297 N 
ATOM      8  H   PHE A   5      61.373  42.128  -2.836  0.00  0.00    +0.150 HD
ATOM      9  O   THR A   4      60.200  45.005  -3.494  0.00  0.00    -0.273 OA
BRANCH   7  10
ATOM     10  CA  PHE A   5      62.619  43.893  -2.808  0.00  0.00    +0.153 C 
BRANCH  10  11
ATOM     11  C   PHE A   5      63.504  43.941  -4.038  0.00  0.00    +0.241 C 
ATOM     12  O   PHE A   5      64.340  44.845  -4.159  0.00  0.00    -0.273 OA
ATOM     13  N   ASN A   6      63.404  42.940  -4.894  0.00  0.00    -0.298 N 
ATOM     14  H   ASN A   6      62.655  42.230  -4.767  0.00  0.00    +0.150 HD
BRANCH  13  15
ATOM     15  CA  ASN A   6      64.338  42.815  -6.025  0.00  0.00    +0.146 C 
BRANCH  15  16
ATOM     16  C   ASN A   6      63.652  42.983  -7.383  0.00  0.00    +0.227 C 
ATOM     17  O   ASN A   6      62.525  42.524  -7.573  0.00  0.00    -0.286 OA
ENDBRANCH  15  16
BRANCH  15  18
ATOM     18  CB  ASN A   6      64.994  41.475  -5.997  0.00  0.00    +0.112 C 
BRANCH  18  19
ATOM     19  CG  ASN A   6      65.832  41.263  -4.755  0.00  0.00    +0.222 C 
ATOM     20  ND2 ASN A   6      65.239  40.677  -3.739  0.00  0.00    -0.329 N 
ATOM     21 HD21 ASN A   6      65.774  40.474  -2.871  0.00  0.00    +0.145 HD
ATOM     22 HD22 ASN A   6      64.234  40.416  -3.803  0.00  0.00    +0.145 HD
ATOM     23  OD1 ASN A   6      67.012  41.590  -4.730  0.00  0.00    -0.275 OA
ENDBRANCH  18  19
ENDBRANCH  15  18
ENDBRANCH  13  15
ENDBRANCH  10  11
BRANCH  10  24
ATOM     24  CB  PHE A   5      63.451  43.328  -1.656  0.00  0.00    +0.055 C 
BRANCH  24  25
ATOM     25  CG  PHE A   5      64.383  44.344  -1.037  0.00  0.00    -0.020 A 
ATOM     26  CD2 PHE A   5      63.891  45.305  -0.177  0.00  0.00    -0.004 A 
ATOM     27  CE2 PHE A   5      64.730  46.235   0.425  0.00  0.00    -0.000 A 
ATOM     28  CZ  PHE A   5      66.075  46.208   0.149  0.00  0.00    -0.000 A 
ATOM     29  CE1 PHE A   5      66.587  45.245  -0.705  0.00  0.00    -0.000 A 
ATOM     30  CD1 PHE A   5      65.744  44.319  -1.294  0.00  0.00    -0.004 A 
ENDBRANCH  24  25
ENDBRANCH  10  24
ENDBRANCH   7  10
ENDBRANCH   5   6
BRANCH   5  31
ATOM     31  CB  THR A   4      58.337  42.869  -1.815  0.00  0.00    +0.137 C 
ATOM     32  CG2 THR A   4      58.177  44.266  -1.205  0.00  0.00    +0.034 C 
BRANCH  31  33
ATOM     33  OG1 THR A   4      57.057  42.275  -1.923  0.00  0.00    -0.382 OA
ATOM     34  HG1 THR A   4      57.147  41.367  -2.308  0.00  0.00    +0.210 HD
ENDBRANCH  31  33
ENDBRANCH   5  31
ENDBRANCH   2   5
BRANCH   1  35
ATOM     35  CA  GLU A   3      59.758  39.987  -5.480  0.00  0.00    +0.149 C 
BRANCH  35  37
ATOM     36  C   CYS A   2      61.638  39.408  -4.043  0.00  0.00    +0.242 C 
ATOM     37  N   GLU A   3      60.383  39.224  -4.418  0.00  0.00    -0.297 N 
ATOM     38  H   GLU A   3      59.820  38.499  -3.929  0.00  0.00    +0.150 HD
ATOM     39  O   CYS A   2      62.336  40.295  -4.502  0.00  0.00    -0.273 OA
BRANCH  36  40
ATOM     40  CA  CYS A   2      62.161  38.485  -2.889  0.00  0.00    +0.160 C 
BRANCH  40  43
ATOM     41  C   ASN A   1      60.688  39.377  -1.239  0.00  0.00    +0.239 C 
ATOM     42  O   ASN A   1      61.017  40.534  -1.515  0.00  0.00    -0.274 OA
ATOM     43  N   CYS A   2      61.159  38.333  -1.911  0.00  0.00    -0.296 N 
ATOM     44  H   CYS A   2      60.781  37.385  -1.711  0.00  0.00    +0.150 HD
BRANCH  41  45
ATOM     45  CA  ASN A   1      59.687  39.080  -0.107  0.00  0.00    +0.154 C 
BRANCH  45  46
ATOM     46  N   ASN A   1      58.661  38.086  -0.498  0.00  0.00    -0.238 NA
ATOM     47  H   ASN A   1      58.526  37.229   0.075  0.00  0.00    +0.142 HD
ENDBRANCH  45  46
BRANCH  45  48
ATOM     48  CB  ASN A   1      60.449  38.652   1.143  0.00  0.00    +0.111 C 
BRANCH  48  49
ATOM     49  CG  ASN A   1      59.558  38.545   2.389  0.00  0.00    +0.221 C 
ATOM     50  ND2 ASN A   1      60.109  37.952   3.463  0.00  0.00    -0.329 N 
ATOM     51 HD21 ASN A   1      59.582  37.903   4.358  0.00  0.00    +0.145 HD
ATOM     52 HD22 ASN A   1      61.063  37.542   3.399  0.00  0.00    +0.145 HD
ATOM     53  OD1 ASN A   1      58.434  39.044   2.416  0.00  0.00    -0.275 OA
ENDBRANCH  48  49
ENDBRANCH  45  48
ENDBRANCH  41  45
ENDBRANCH  40  43
BRANCH  40  54
ATOM     54  CB  CYS A   2      62.610  37.124  -3.390  0.00  0.00    +0.098 C 
ATOM     55  SG  CYS A   2      63.870  37.180  -4.685  0.00  0.00    -0.080 S 
ENDBRANCH  40  54
ENDBRANCH  36  40
ENDBRANCH  35  37
BRANCH  35  56
ATOM     56  CB  GLU A   3      58.407  39.353  -5.861  0.00  0.00    +0.041 C 
BRANCH  56  57
ATOM     57  CG  GLU A   3      58.500  38.185  -6.807  0.00  0.00    +0.116 C 
BRANCH  57  58
ATOM     58  CD  GLU A   3      57.214  37.965  -7.586  0.00  0.00    +0.365 C 
ATOM     59  OE2 GLU A   3      56.804  36.796  -7.707  0.00  0.00    -0.246 OA
ATOM     60  OE1 GLU A   3      56.640  38.948  -8.103  0.00  0.00    -0.246 OA
ENDBRANCH  57  58
ENDBRANCH  56  57
ENDBRANCH  35  56
ENDBRANCH   1  35
TORSDOF 24
REMARK  Name = ../refined-set-2016/4rvr/4rvr_pocket.pdb
REMARK  111 active torsions:
REMARK  status: ('A' for Active; 'I' for Inactive)
REMARK    1  A    between atoms: _1  and  _3
REMARK    2  A    between atoms: _3  and  _4
REMARK    3  A    between atoms: _7  and  _9
REMARK    4  A    between atoms: _9  and  _10
REMARK    5  A    between atoms: _9  and  _12
REMARK    6  A    between atoms: _12  and  _13
REMARK    7  A    between atoms: _24  and  _25
REMARK    8  A    between atoms: _30  and  _32
REMARK    9  A    between atoms: _32  and  _33
REMARK   10  A    between atoms: _32  and  _35
REMARK   11  A    between atoms: _35  and  _36
REMARK   12  A    between atoms: _42  and  _44
REMARK   13  A    between atoms: _44  and  _45
REMARK   14  A    between atoms: _44  and  _47
REMARK   15  A    between atoms: _47  and  _48
REMARK   16  A    between atoms: _51  and  _53
REMARK   17  A    between atoms: _53  and  _54
REMARK   18  A    between atoms: _53  and  _56
REMARK   19  A    between atoms: _56  and  _57
REMARK   20  A    between atoms: _61  and  _62
REMARK   21  A    between atoms: _67  and  _69
REMARK   22  A    between atoms: _69  and  _70
REMARK   23  A    between atoms: _69  and  _72
REMARK   24  A    between atoms: _75  and  _77
REMARK   25  A    between atoms: _77  and  _78
REMARK   26  A    between atoms: _77  and  _80
REMARK   27  A    between atoms: _80  and  _81
REMARK   28  A    between atoms: _86  and  _88
REMARK   29  A    between atoms: _88  and  _89
REMARK   30  A    between atoms: _88  and  _91
REMARK   31  A    between atoms: _91  and  _92
REMARK   32  A    between atoms: _95  and  _97
REMARK   33  A    between atoms: _97  and  _98
REMARK   34  A    between atoms: _97  and  _100
REMARK   35  A    between atoms: _100  and  _101
REMARK   36  A    between atoms: _101  and  _102
REMARK   37  A    between atoms: _102  and  _103
REMARK   38  A    between atoms: _103  and  _104
REMARK   39  A    between atoms: _108  and  _110
REMARK   40  A    between atoms: _110  and  _111
REMARK   41  A    between atoms: _110  and  _113
REMARK   42  A    between atoms: _113  and  _114
REMARK   43  A    between atoms: _117  and  _119
REMARK   44  A    between atoms: _119  and  _120
REMARK   45  A    between atoms: _119  and  _122
REMARK   46  A    between atoms: _126  and  _127
REMARK   47  A    between atoms: _132  and  _134
REMARK   48  A    between atoms: _134  and  _135
REMARK   49  A    between atoms: _134  and  _137
REMARK   50  A    between atoms: _137  and  _138
REMARK   51  A    between atoms: _143  and  _144
REMARK   52  A    between atoms: _146  and  _148
REMARK   53  A    between atoms: _148  and  _149
REMARK   54  A    between atoms: _148  and  _151
REMARK   55  A    between atoms: _151  and  _152
REMARK   56  A    between atoms: _155  and  _157
REMARK   57  A    between atoms: _157  and  _158
REMARK   58  A    between atoms: _157  and  _160
REMARK   59  A    between atoms: _160  and  _161
REMARK   60  A    between atoms: _161  and  _162
REMARK   61  A    between atoms: _164  and  _166
REMARK   62  A    between atoms: _166  and  _167
REMARK   63  A    between atoms: _166  and  _169
REMARK   64  A    between atoms: _169  and  _170
REMARK   65  A    between atoms: _173  and  _175
REMARK   66  A    between atoms: _175  and  _176
REMARK   67  A    between atoms: _175  and  _178
REMARK   68  A    between atoms: _178  and  _179
REMARK   69  A    between atoms: _185  and  _187
REMARK   70  A    between atoms: _187  and  _188
REMARK   71  A    between atoms: _187  and  _190
REMARK   72  A    between atoms: _190  and  _191
REMARK   73  A    between atoms: _193  and  _195
REMARK   74  A    between atoms: _195  and  _196
REMARK   75  A    between atoms: _195  and  _198
REMARK   76  A    between atoms: _201  and  _203
REMARK   77  A    between atoms: _203  and  _204
REMARK   78  A    between atoms: _203  and  _206
REMARK   79  A    between atoms: _206  and  _207
REMARK   80  A    between atoms: _213  and  _215
REMARK   81  A    between atoms: _215  and  _216
REMARK   82  A    between atoms: _215  and  _218
REMARK   83  A    between atoms: _218  and  _219
REMARK   84  A    between atoms: _224  and  _226
REMARK   85  A    between atoms: _226  and  _227
REMARK   86  A    between atoms: _226  and  _229
REMARK   87  A    between atoms: _231  and  _233
REMARK   88  A    between atoms: _233  and  _234
REMARK   89  A    between atoms: _233  and  _236
REMARK   90  A    between atoms: _236  and  _237
REMARK   91  A    between atoms: _237  and  _238
REMARK   92  A    between atoms: _241  and  _243
REMARK   93  A    between atoms: _243  and  _244
REMARK   94  A    between atoms: _243  and  _246
REMARK   95  A    between atoms: _246  and  _247
REMARK   96  A    between atoms: _250  and  _252
REMARK   97  A    between atoms: _252  and  _253
REMARK   98  A    between atoms: _252  and  _255
REMARK   99  A    between atoms: _255  and  _256
REMARK  100  A    between atoms: _262  and  _264
REMARK  101  A    between atoms: _264  and  _265
REMARK  102  A    between atoms: _264  and  _267
REMARK  103  A    between atoms: _267  and  _268
REMARK  104  A    between atoms: _273  and  _275
REMARK  105  A    between atoms: _275  and  _276
REMARK  106  A    between atoms: _275  and  _278
REMARK  107  A    between atoms: _278  and  _279
REMARK  108  A    between atoms: _282  and  _284
REMARK  109  A    between atoms: _284  and  _285
REMARK  110  A    between atoms: _287  and  _289
REMARK  111  A    between atoms: _289  and  _290
REMARK                            x       y       z     vdW  Elec       q    Type
REMARK                         _______ _______ _______ _____ _____    ______ ____
ROOT
ATOM      1  CA  ILE A   1      68.408  37.465  -7.172  0.00  0.00    +0.145 C 
ENDROOT
BRANCH   1   2
ATOM      2  C   ILE A   1      66.933  37.296  -7.543  0.00  0.00    +0.238 C 
ATOM      3  O   ILE A   1      66.295  36.281  -7.199  0.00  0.00    -0.274 OA
ATOM      4  N   GLY A   2      66.416  38.265  -8.280  0.00  0.00    -0.297 N 
ATOM      5  H   GLY A   2      67.031  39.055  -8.561  0.00  0.00    +0.150 HD
BRANCH   4   6
ATOM      6  CA  GLY A   2      65.014  38.279  -8.721  0.00  0.00    +0.163 C 
BRANCH   6   7
ATOM      7  C   GLY A   2      64.669  37.088  -9.614  0.00  0.00    +0.229 C 
ATOM      8  O   GLY A   2      63.614  36.443  -9.447  0.00  0.00    -0.286 OA
ENDBRANCH   6   7
ENDBRANCH   4   6
ENDBRANCH   1   2
BRANCH   1   9
ATOM      9  N   ILE A   1      69.201  37.921  -8.333  0.00  0.00    -0.238 NA
ATOM     10  H   ILE A   1      69.645  38.861  -8.318  0.00  0.00    +0.142 HD
ENDBRANCH   1   9
BRANCH   1  11
ATOM     11  CB  ILE A   1      68.531  38.443  -5.988  0.00  0.00    +0.025 C 
ATOM     12  CG2 ILE A   1      67.501  38.083  -4.881  0.00  0.00    +0.002 C 
BRANCH  11  13
ATOM     13  CG1 ILE A   1      69.969  38.391  -5.456  0.00  0.00    +0.002 C 
ATOM     14  CD1 ILE A   1      70.329  39.462  -4.473  0.00  0.00    +0.000 C 
ENDBRANCH  11  13
ENDBRANCH   1  11
TORSDOF 6
REMARK  Name = ../refined-set-2016/4rvr/4rvr_pocket.pdb
REMARK  111 active torsions:
REMARK  status: ('A' for Active; 'I' for Inactive)
REMARK    1  A    between atoms: _1  and  _3
REMARK    2  A    between atoms: _3  and  _4
REMARK    3  A    between atoms: _7  and  _9
REMARK    4  A    between atoms: _9  and  _10
REMARK    5  A    between atoms: _9  and  _12
REMARK    6  A    between atoms: _12  and  _13
REMARK    7  A    between atoms: _24  and  _25
REMARK    8  A    between atoms: _30  and  _32
REMARK    9  A    between atoms: _32  and  _33
REMARK   10  A    between atoms: _32  and  _35
REMARK   11  A    between atoms: _35  and  _36
REMARK   12  A    between atoms: _42  and  _44
REMARK   13  A    between atoms: _44  and  _45
REMARK   14  A    between atoms: _44  and  _47
REMARK   15  A    between atoms: _47  and  _48
REMARK   16  A    between atoms: _51  and  _53
REMARK   17  A    between atoms: _53  and  _54
REMARK   18  A    between atoms: _53  and  _56
REMARK   19  A    between atoms: _56  and  _57
REMARK   20  A    between atoms: _61  and  _62
REMARK   21  A    between atoms: _67  and  _69
REMARK   22  A    between atoms: _69  and  _70
REMARK   23  A    between atoms: _69  and  _72
REMARK   24  A    between atoms: _75  and  _77
REMARK   25  A    between atoms: _77  and  _78
REMARK   26  A    between atoms: _77  and  _80
REMARK   27  A    between atoms: _80  and  _81
REMARK   28  A    between atoms: _86  and  _88
REMARK   29  A    between atoms: _88  and  _89
REMARK   30  A    between atoms: _88  and  _91
REMARK   31  A    between atoms: _91  and  _92
REMARK   32  A    between atoms: _95  and  _97
REMARK   33  A    between atoms: _97  and  _98
REMARK   34  A    between atoms: _97  and  _100
REMARK   35  A    between atoms: _100  and  _101
REMARK   36  A    between atoms: _101  and  _102
REMARK   37  A    between atoms: _102  and  _103
REMARK   38  A    between atoms: _103  and  _104
REMARK   39  A    between atoms: _108  and  _110
REMARK   40  A    between atoms: _110  and  _111
REMARK   41  A    between atoms: _110  and  _113
REMARK   42  A    between atoms: _113  and  _114
REMARK   43  A    between atoms: _117  and  _119
REMARK   44  A    between atoms: _119  and  _120
REMARK   45  A    between atoms: _119  and  _122
REMARK   46  A    between atoms: _126  and  _127
REMARK   47  A    between atoms: _132  and  _134
REMARK   48  A    between atoms: _134  and  _135
REMARK   49  A    between atoms: _134  and  _137
REMARK   50  A    between atoms: _137  and  _138
REMARK   51  A    between atoms: _143  and  _144
REMARK   52  A    between atoms: _146  and  _148
REMARK   53  A    between atoms: _148  and  _149
REMARK   54  A    between atoms: _148  and  _151
REMARK   55  A    between atoms: _151  and  _152
REMARK   56  A    between atoms: _155  and  _157
REMARK   57  A    between atoms: _157  and  _158
REMARK   58  A    between atoms: _157  and  _160
REMARK   59  A    between atoms: _160  and  _161
REMARK   60  A    between atoms: _161  and  _162
REMARK   61  A    between atoms: _164  and  _166
REMARK   62  A    between atoms: _166  and  _167
REMARK   63  A    between atoms: _166  and  _169
REMARK   64  A    between atoms: _169  and  _170
REMARK   65  A    between atoms: _173  and  _175
REMARK   66  A    between atoms: _175  and  _176
REMARK   67  A    between atoms: _175  and  _178
REMARK   68  A    between atoms: _178  and  _179
REMARK   69  A    between atoms: _185  and  _187
REMARK   70  A    between atoms: _187  and  _188
REMARK   71  A    between atoms: _187  and  _190
REMARK   72  A    between atoms: _190  and  _191
REMARK   73  A    between atoms: _193  and  _195
REMARK   74  A    between atoms: _195  and  _196
REMARK   75  A    between atoms: _195  and  _198
REMARK   76  A    between atoms: _201  and  _203
REMARK   77  A    between atoms: _203  and  _204
REMARK   78  A    between atoms: _203  and  _206
REMARK   79  A    between atoms: _206  and  _207
REMARK   80  A    between atoms: _213  and  _215
REMARK   81  A    between atoms: _215  and  _216
REMARK   82  A    between atoms: _215  and  _218
REMARK   83  A    between atoms: _218  and  _219
REMARK   84  A    between atoms: _224  and  _226
REMARK   85  A    between atoms: _226  and  _227
REMARK   86  A    between atoms: _226  and  _229
REMARK   87  A    between atoms: _231  and  _233
REMARK   88  A    between atoms: _233  and  _234
REMARK   89  A    between atoms: _233  and  _236
REMARK   90  A    between atoms: _236  and  _237
REMARK   91  A    between atoms: _237  and  _238
REMARK   92  A    between atoms: _241  and  _243
REMARK   93  A    between atoms: _243  and  _244
REMARK   94  A    between atoms: _243  and  _246
REMARK   95  A    between atoms: _246  and  _247
REMARK   96  A    between atoms: _250  and  _252
REMARK   97  A    between atoms: _252  and  _253
REMARK   98  A    between atoms: _252  and  _255
REMARK   99  A    between atoms: _255  and  _256
REMARK  100  A    between atoms: _262  and  _264
REMARK  101  A    between atoms: _264  and  _265
REMARK  102  A    between atoms: _264  and  _267
REMARK  103  A    between atoms: _267  and  _268
REMARK  104  A    between atoms: _273  and  _275
REMARK  105  A    between atoms: _275  and  _276
REMARK  106  A    between atoms: _275  and  _278
REMARK  107  A    between atoms: _278  and  _279
REMARK  108  A    between atoms: _282  and  _284
REMARK  109  A    between atoms: _284  and  _285
REMARK  110  A    between atoms: _287  and  _289
REMARK  111  A    between atoms: _289  and  _290
REMARK                            x       y       z     vdW  Elec       q    Type
REMARK                         _______ _______ _______ _____ _____    ______ ____
ROOT
ATOM      1  CA  GLY A   1      63.404  33.692  -6.821  0.00  0.00    +0.156 C 
ENDROOT
BRANCH   1   2
ATOM      2  N   GLY A   1      64.630  33.853  -7.558  0.00  0.00    -0.238 NA
ATOM      3  H   GLY A   1      65.005  34.811  -7.710  0.00  0.00    +0.142 HD
ENDBRANCH   1   2
BRANCH   1   4
ATOM      4  C   GLY A   1      62.273  33.141  -7.653  0.00  0.00    +0.226 C 
ATOM      5  O   GLY A   1      61.512  32.246  -7.206  0.00  0.00    -0.287 OA
ENDBRANCH   1   4
TORSDOF 2
REMARK  Name = ../refined-set-2016/4rvr/4rvr_pocket.pdb
REMARK  111 active torsions:
REMARK  status: ('A' for Active; 'I' for Inactive)
REMARK    1  A    between atoms: _1  and  _3
REMARK    2  A    between atoms: _3  and  _4
REMARK    3  A    between atoms: _7  and  _9
REMARK    4  A    between atoms: _9  and  _10
REMARK    5  A    between atoms: _9  and  _12
REMARK    6  A    between atoms: _12  and  _13
REMARK    7  A    between atoms: _24  and  _25
REMARK    8  A    between atoms: _30  and  _32
REMARK    9  A    between atoms: _32  and  _33
REMARK   10  A    between atoms: _32  and  _35
REMARK   11  A    between atoms: _35  and  _36
REMARK   12  A    between atoms: _42  and  _44
REMARK   13  A    between atoms: _44  and  _45
REMARK   14  A    between atoms: _44  and  _47
REMARK   15  A    between atoms: _47  and  _48
REMARK   16  A    between atoms: _51  and  _53
REMARK   17  A    between atoms: _53  and  _54
REMARK   18  A    between atoms: _53  and  _56
REMARK   19  A    between atoms: _56  and  _57
REMARK   20  A    between atoms: _61  and  _62
REMARK   21  A    between atoms: _67  and  _69
REMARK   22  A    between atoms: _69  and  _70
REMARK   23  A    between atoms: _69  and  _72
REMARK   24  A    between atoms: _75  and  _77
REMARK   25  A    between atoms: _77  and  _78
REMARK   26  A    between atoms: _77  and  _80
REMARK   27  A    between atoms: _80  and  _81
REMARK   28  A    between atoms: _86  and  _88
REMARK   29  A    between atoms: _88  and  _89
REMARK   30  A    between atoms: _88  and  _91
REMARK   31  A    between atoms: _91  and  _92
REMARK   32  A    between atoms: _95  and  _97
REMARK   33  A    between atoms: _97  and  _98
REMARK   34  A    between atoms: _97  and  _100
REMARK   35  A    between atoms: _100  and  _101
REMARK   36  A    between atoms: _101  and  _102
REMARK   37  A    between atoms: _102  and  _103
REMARK   38  A    between atoms: _103  and  _104
REMARK   39  A    between atoms: _108  and  _110
REMARK   40  A    between atoms: _110  and  _111
REMARK   41  A    between atoms: _110  and  _113
REMARK   42  A    between atoms: _113  and  _114
REMARK   43  A    between atoms: _117  and  _119
REMARK   44  A    between atoms: _119  and  _120
REMARK   45  A    between atoms: _119  and  _122
REMARK   46  A    between atoms: _126  and  _127
REMARK   47  A    between atoms: _132  and  _134
REMARK   48  A    between atoms: _134  and  _135
REMARK   49  A    between atoms: _134  and  _137
REMARK   50  A    between atoms: _137  and  _138
REMARK   51  A    between atoms: _143  and  _144
REMARK   52  A    between atoms: _146  and  _148
REMARK   53  A    between atoms: _148  and  _149
REMARK   54  A    between atoms: _148  and  _151
REMARK   55  A    between atoms: _151  and  _152
REMARK   56  A    between atoms: _155  and  _157
REMARK   57  A    between atoms: _157  and  _158
REMARK   58  A    between atoms: _157  and  _160
REMARK   59  A    between atoms: _160  and  _161
REMARK   60  A    between atoms: _161  and  _162
REMARK   61  A    between atoms: _164  and  _166
REMARK   62  A    between atoms: _166  and  _167
REMARK   63  A    between atoms: _166  and  _169
REMARK   64  A    between atoms: _169  and  _170
REMARK   65  A    between atoms: _173  and  _175
REMARK   66  A    between atoms: _175  and  _176
REMARK   67  A    between atoms: _175  and  _178
REMARK   68  A    between atoms: _178  and  _179
REMARK   69  A    between atoms: _185  and  _187
REMARK   70  A    between atoms: _187  and  _188
REMARK   71  A    between atoms: _187  and  _190
REMARK   72  A    between atoms: _190  and  _191
REMARK   73  A    between atoms: _193  and  _195
REMARK   74  A    between atoms: _195  and  _196
REMARK   75  A    between atoms: _195  and  _198
REMARK   76  A    between atoms: _201  and  _203
REMARK   77  A    between atoms: _203  and  _204
REMARK   78  A    between atoms: _203  and  _206
REMARK   79  A    between atoms: _206  and  _207
REMARK   80  A    between atoms: _213  and  _215
REMARK   81  A    between atoms: _215  and  _216
REMARK   82  A    between atoms: _215  and  _218
REMARK   83  A    between atoms: _218  and  _219
REMARK   84  A    between atoms: _224  and  _226
REMARK   85  A    between atoms: _226  and  _227
REMARK   86  A    between atoms: _226  and  _229
REMARK   87  A    between atoms: _231  and  _233
REMARK   88  A    between atoms: _233  and  _234
REMARK   89  A    between atoms: _233  and  _236
REMARK   90  A    between atoms: _236  and  _237
REMARK   91  A    between atoms: _237  and  _238
REMARK   92  A    between atoms: _241  and  _243
REMARK   93  A    between atoms: _243  and  _244
REMARK   94  A    between atoms: _243  and  _246
REMARK   95  A    between atoms: _246  and  _247
REMARK   96  A    between atoms: _250  and  _252
REMARK   97  A    between atoms: _252  and  _253
REMARK   98  A    between atoms: _252  and  _255
REMARK   99  A    between atoms: _255  and  _256
REMARK  100  A    between atoms: _262  and  _264
REMARK  101  A    between atoms: _264  and  _265
REMARK  102  A    between atoms: _264  and  _267
REMARK  103  A    between atoms: _267  and  _268
REMARK  104  A    between atoms: _273  and  _275
REMARK  105  A    between atoms: _275  and  _276
REMARK  106  A    between atoms: _275  and  _278
REMARK  107  A    between atoms: _278  and  _279
REMARK  108  A    between atoms: _282  and  _284
REMARK  109  A    between atoms: _284  and  _285
REMARK  110  A    between atoms: _287  and  _289
REMARK  111  A    between atoms: _289  and  _290
REMARK                            x       y       z     vdW  Elec       q    Type
REMARK                         _______ _______ _______ _____ _____    ______ ____
ROOT
ATOM      1  O   HOH     1      67.560  35.284   2.251  0.00  0.00    +0.000 OA
ENDROOT
TORSDOF 0
REMARK  Name = ../refined-set-2016/4rvr/4rvr_pocket.pdb
REMARK  111 active torsions:
REMARK  status: ('A' for Active; 'I' for Inactive)
REMARK    1  A    between atoms: _1  and  _3
REMARK    2  A    between atoms: _3  and  _4
REMARK    3  A    between atoms: _7  and  _9
REMARK    4  A    between atoms: _9  and  _10
REMARK    5  A    between atoms: _9  and  _12
REMARK    6  A    between atoms: _12  and  _13
REMARK    7  A    between atoms: _24  and  _25
REMARK    8  A    between atoms: _30  and  _32
REMARK    9  A    between atoms: _32  and  _33
REMARK   10  A    between atoms: _32  and  _35
REMARK   11  A    between atoms: _35  and  _36
REMARK   12  A    between atoms: _42  and  _44
REMARK   13  A    between atoms: _44  and  _45
REMARK   14  A    between atoms: _44  and  _47
REMARK   15  A    between atoms: _47  and  _48
REMARK   16  A    between atoms: _51  and  _53
REMARK   17  A    between atoms: _53  and  _54
REMARK   18  A    between atoms: _53  and  _56
REMARK   19  A    between atoms: _56  and  _57
REMARK   20  A    between atoms: _61  and  _62
REMARK   21  A    between atoms: _67  and  _69
REMARK   22  A    between atoms: _69  and  _70
REMARK   23  A    between atoms: _69  and  _72
REMARK   24  A    between atoms: _75  and  _77
REMARK   25  A    between atoms: _77  and  _78
REMARK   26  A    between atoms: _77  and  _80
REMARK   27  A    between atoms: _80  and  _81
REMARK   28  A    between atoms: _86  and  _88
REMARK   29  A    between atoms: _88  and  _89
REMARK   30  A    between atoms: _88  and  _91
REMARK   31  A    between atoms: _91  and  _92
REMARK   32  A    between atoms: _95  and  _97
REMARK   33  A    between atoms: _97  and  _98
REMARK   34  A    between atoms: _97  and  _100
REMARK   35  A    between atoms: _100  and  _101
REMARK   36  A    between atoms: _101  and  _102
REMARK   37  A    between atoms: _102  and  _103
REMARK   38  A    between atoms: _103  and  _104
REMARK   39  A    between atoms: _108  and  _110
REMARK   40  A    between atoms: _110  and  _111
REMARK   41  A    between atoms: _110  and  _113
REMARK   42  A    between atoms: _113  and  _114
REMARK   43  A    between atoms: _117  and  _119
REMARK   44  A    between atoms: _119  and  _120
REMARK   45  A    between atoms: _119  and  _122
REMARK   46  A    between atoms: _126  and  _127
REMARK   47  A    between atoms: _132  and  _134
REMARK   48  A    between atoms: _134  and  _135
REMARK   49  A    between atoms: _134  and  _137
REMARK   50  A    between atoms: _137  and  _138
REMARK   51  A    between atoms: _143  and  _144
REMARK   52  A    between atoms: _146  and  _148
REMARK   53  A    between atoms: _148  and  _149
REMARK   54  A    between atoms: _148  and  _151
REMARK   55  A    between atoms: _151  and  _152
REMARK   56  A    between atoms: _155  and  _157
REMARK   57  A    between atoms: _157  and  _158
REMARK   58  A    between atoms: _157  and  _160
REMARK   59  A    between atoms: _160  and  _161
REMARK   60  A    between atoms: _161  and  _162
REMARK   61  A    between atoms: _164  and  _166
REMARK   62  A    between atoms: _166  and  _167
REMARK   63  A    between atoms: _166  and  _169
REMARK   64  A    between atoms: _169  and  _170
REMARK   65  A    between atoms: _173  and  _175
REMARK   66  A    between atoms: _175  and  _176
REMARK   67  A    between atoms: _175  and  _178
REMARK   68  A    between atoms: _178  and  _179
REMARK   69  A    between atoms: _185  and  _187
REMARK   70  A    between atoms: _187  and  _188
REMARK   71  A    between atoms: _187  and  _190
REMARK   72  A    between atoms: _190  and  _191
REMARK   73  A    between atoms: _193  and  _195
REMARK   74  A    between atoms: _195  and  _196
REMARK   75  A    between atoms: _195  and  _198
REMARK   76  A    between atoms: _201  and  _203
REMARK   77  A    between atoms: _203  and  _204
REMARK   78  A    between atoms: _203  and  _206
REMARK   79  A    between atoms: _206  and  _207
REMARK   80  A    between atoms: _213  and  _215
REMARK   81  A    between atoms: _215  and  _216
REMARK   82  A    between atoms: _215  and  _218
REMARK   83  A    between atoms: _218  and  _219
REMARK   84  A    between atoms: _224  and  _226
REMARK   85  A    between atoms: _226  and  _227
REMARK   86  A    between atoms: _226  and  _229
REMARK   87  A    between atoms: _231  and  _233
REMARK   88  A    between atoms: _233  and  _234
REMARK   89  A    between atoms: _233  and  _236
REMARK   90  A    between atoms: _236  and  _237
REMARK   91  A    between atoms: _237  and  _238
REMARK   92  A    between atoms: _241  and  _243
REMARK   93  A    between atoms: _243  and  _244
REMARK   94  A    between atoms: _243  and  _246
REMARK   95  A    between atoms: _246  and  _247
REMARK   96  A    between atoms: _250  and  _252
REMARK   97  A    between atoms: _252  and  _253
REMARK   98  A    between atoms: _252  and  _255
REMARK   99  A    between atoms: _255  and  _256
REMARK  100  A    between atoms: _262  and  _264
REMARK  101  A    between atoms: _264  and  _265
REMARK  102  A    between atoms: _264  and  _267
REMARK  103  A    between atoms: _267  and  _268
REMARK  104  A    between atoms: _273  and  _275
REMARK  105  A    between atoms: _275  and  _276
REMARK  106  A    between atoms: _275  and  _278
REMARK  107  A    between atoms: _278  and  _279
REMARK  108  A    between atoms: _282  and  _284
REMARK  109  A    between atoms: _284  and  _285
REMARK  110  A    between atoms: _287  and  _289
REMARK  111  A    between atoms: _289  and  _290
REMARK                            x       y       z     vdW  Elec       q    Type
REMARK                         _______ _______ _______ _____ _____    ______ ____
ROOT
ATOM      1  O   HOH     1      71.869  33.227   1.545  0.00  0.00    +0.000 OA
ENDROOT
TORSDOF 0
REMARK  Name = ../refined-set-2016/4rvr/4rvr_pocket.pdb
REMARK  111 active torsions:
REMARK  status: ('A' for Active; 'I' for Inactive)
REMARK    1  A    between atoms: _1  and  _3
REMARK    2  A    between atoms: _3  and  _4
REMARK    3  A    between atoms: _7  and  _9
REMARK    4  A    between atoms: _9  and  _10
REMARK    5  A    between atoms: _9  and  _12
REMARK    6  A    between atoms: _12  and  _13
REMARK    7  A    between atoms: _24  and  _25
REMARK    8  A    between atoms: _30  and  _32
REMARK    9  A    between atoms: _32  and  _33
REMARK   10  A    between atoms: _32  and  _35
REMARK   11  A    between atoms: _35  and  _36
REMARK   12  A    between atoms: _42  and  _44
REMARK   13  A    between atoms: _44  and  _45
REMARK   14  A    between atoms: _44  and  _47
REMARK   15  A    between atoms: _47  and  _48
REMARK   16  A    between atoms: _51  and  _53
REMARK   17  A    between atoms: _53  and  _54
REMARK   18  A    between atoms: _53  and  _56
REMARK   19  A    between atoms: _56  and  _57
REMARK   20  A    between atoms: _61  and  _62
REMARK   21  A    between atoms: _67  and  _69
REMARK   22  A    between atoms: _69  and  _70
REMARK   23  A    between atoms: _69  and  _72
REMARK   24  A    between atoms: _75  and  _77
REMARK   25  A    between atoms: _77  and  _78
REMARK   26  A    between atoms: _77  and  _80
REMARK   27  A    between atoms: _80  and  _81
REMARK   28  A    between atoms: _86  and  _88
REMARK   29  A    between atoms: _88  and  _89
REMARK   30  A    between atoms: _88  and  _91
REMARK   31  A    between atoms: _91  and  _92
REMARK   32  A    between atoms: _95  and  _97
REMARK   33  A    between atoms: _97  and  _98
REMARK   34  A    between atoms: _97  and  _100
REMARK   35  A    between atoms: _100  and  _101
REMARK   36  A    between atoms: _101  and  _102
REMARK   37  A    between atoms: _102  and  _103
REMARK   38  A    between atoms: _103  and  _104
REMARK   39  A    between atoms: _108  and  _110
REMARK   40  A    between atoms: _110  and  _111
REMARK   41  A    between atoms: _110  and  _113
REMARK   42  A    between atoms: _113  and  _114
REMARK   43  A    between atoms: _117  and  _119
REMARK   44  A    between atoms: _119  and  _120
REMARK   45  A    between atoms: _119  and  _122
REMARK   46  A    between atoms: _126  and  _127
REMARK   47  A    between atoms: _132  and  _134
REMARK   48  A    between atoms: _134  and  _135
REMARK   49  A    between atoms: _134  and  _137
REMARK   50  A    between atoms: _137  and  _138
REMARK   51  A    between atoms: _143  and  _144
REMARK   52  A    between atoms: _146  and  _148
REMARK   53  A    between atoms: _148  and  _149
REMARK   54  A    between atoms: _148  and  _151
REMARK   55  A    between atoms: _151  and  _152
REMARK   56  A    between atoms: _155  and  _157
REMARK   57  A    between atoms: _157  and  _158
REMARK   58  A    between atoms: _157  and  _160
REMARK   59  A    between atoms: _160  and  _161
REMARK   60  A    between atoms: _161  and  _162
REMARK   61  A    between atoms: _164  and  _166
REMARK   62  A    between atoms: _166  and  _167
REMARK   63  A    between atoms: _166  and  _169
REMARK   64  A    between atoms: _169  and  _170
REMARK   65  A    between atoms: _173  and  _175
REMARK   66  A    between atoms: _175  and  _176
REMARK   67  A    between atoms: _175  and  _178
REMARK   68  A    between atoms: _178  and  _179
REMARK   69  A    between atoms: _185  and  _187
REMARK   70  A    between atoms: _187  and  _188
REMARK   71  A    between atoms: _187  and  _190
REMARK   72  A    between atoms: _190  and  _191
REMARK   73  A    between atoms: _193  and  _195
REMARK   74  A    between atoms: _195  and  _196
REMARK   75  A    between atoms: _195  and  _198
REMARK   76  A    between atoms: _201  and  _203
REMARK   77  A    between atoms: _203  and  _204
REMARK   78  A    between atoms: _203  and  _206
REMARK   79  A    between atoms: _206  and  _207
REMARK   80  A    between atoms: _213  and  _215
REMARK   81  A    between atoms: _215  and  _216
REMARK   82  A    between atoms: _215  and  _218
REMARK   83  A    between atoms: _218  and  _219
REMARK   84  A    between atoms: _224  and  _226
REMARK   85  A    between atoms: _226  and  _227
REMARK   86  A    between atoms: _226  and  _229
REMARK   87  A    between atoms: _231  and  _233
REMARK   88  A    between atoms: _233  and  _234
REMARK   89  A    between atoms: _233  and  _236
REMARK   90  A    between atoms: _236  and  _237
REMARK   91  A    between atoms: _237  and  _238
REMARK   92  A    between atoms: _241  and  _243
REMARK   93  A    between atoms: _243  and  _244
REMARK   94  A    between atoms: _243  and  _246
REMARK   95  A    between atoms: _246  and  _247
REMARK   96  A    between atoms: _250  and  _252
REMARK   97  A    between atoms: _252  and  _253
REMARK   98  A    between atoms: _252  and  _255
REMARK   99  A    between atoms: _255  and  _256
REMARK  100  A    between atoms: _262  and  _264
REMARK  101  A    between atoms: _264  and  _265
REMARK  102  A    between atoms: _264  and  _267
REMARK  103  A    between atoms: _267  and  _268
REMARK  104  A    between atoms: _273  and  _275
REMARK  105  A    between atoms: _275  and  _276
REMARK  106  A    between atoms: _275  and  _278
REMARK  107  A    between atoms: _278  and  _279
REMARK  108  A    between atoms: _282  and  _284
REMARK  109  A    between atoms: _284  and  _285
REMARK  110  A    between atoms: _287  and  _289
REMARK  111  A    between atoms: _289  and  _290
REMARK                            x       y       z     vdW  Elec       q    Type
REMARK                         _______ _______ _______ _____ _____    ______ ____
ROOT
ATOM      1  O   HOH     1      66.799  45.105  -7.447  0.00  0.00    +0.000 OA
ENDROOT
TORSDOF 0
REMARK  Name = ../refined-set-2016/4rvr/4rvr_pocket.pdb
REMARK  111 active torsions:
REMARK  status: ('A' for Active; 'I' for Inactive)
REMARK    1  A    between atoms: _1  and  _3
REMARK    2  A    between atoms: _3  and  _4
REMARK    3  A    between atoms: _7  and  _9
REMARK    4  A    between atoms: _9  and  _10
REMARK    5  A    between atoms: _9  and  _12
REMARK    6  A    between atoms: _12  and  _13
REMARK    7  A    between atoms: _24  and  _25
REMARK    8  A    between atoms: _30  and  _32
REMARK    9  A    between atoms: _32  and  _33
REMARK   10  A    between atoms: _32  and  _35
REMARK   11  A    between atoms: _35  and  _36
REMARK   12  A    between atoms: _42  and  _44
REMARK   13  A    between atoms: _44  and  _45
REMARK   14  A    between atoms: _44  and  _47
REMARK   15  A    between atoms: _47  and  _48
REMARK   16  A    between atoms: _51  and  _53
REMARK   17  A    between atoms: _53  and  _54
REMARK   18  A    between atoms: _53  and  _56
REMARK   19  A    between atoms: _56  and  _57
REMARK   20  A    between atoms: _61  and  _62
REMARK   21  A    between atoms: _67  and  _69
REMARK   22  A    between atoms: _69  and  _70
REMARK   23  A    between atoms: _69  and  _72
REMARK   24  A    between atoms: _75  and  _77
REMARK   25  A    between atoms: _77  and  _78
REMARK   26  A    between atoms: _77  and  _80
REMARK   27  A    between atoms: _80  and  _81
REMARK   28  A    between atoms: _86  and  _88
REMARK   29  A    between atoms: _88  and  _89
REMARK   30  A    between atoms: _88  and  _91
REMARK   31  A    between atoms: _91  and  _92
REMARK   32  A    between atoms: _95  and  _97
REMARK   33  A    between atoms: _97  and  _98
REMARK   34  A    between atoms: _97  and  _100
REMARK   35  A    between atoms: _100  and  _101
REMARK   36  A    between atoms: _101  and  _102
REMARK   37  A    between atoms: _102  and  _103
REMARK   38  A    between atoms: _103  and  _104
REMARK   39  A    between atoms: _108  and  _110
REMARK   40  A    between atoms: _110  and  _111
REMARK   41  A    between atoms: _110  and  _113
REMARK   42  A    between atoms: _113  and  _114
REMARK   43  A    between atoms: _117  and  _119
REMARK   44  A    between atoms: _119  and  _120
REMARK   45  A    between atoms: _119  and  _122
REMARK   46  A    between atoms: _126  and  _127
REMARK   47  A    between atoms: _132  and  _134
REMARK   48  A    between atoms: _134  and  _135
REMARK   49  A    between atoms: _134  and  _137
REMARK   50  A    between atoms: _137  and  _138
REMARK   51  A    between atoms: _143  and  _144
REMARK   52  A    between atoms: _146  and  _148
REMARK   53  A    between atoms: _148  and  _149
REMARK   54  A    between atoms: _148  and  _151
REMARK   55  A    between atoms: _151  and  _152
REMARK   56  A    between atoms: _155  and  _157
REMARK   57  A    between atoms: _157  and  _158
REMARK   58  A    between atoms: _157  and  _160
REMARK   59  A    between atoms: _160  and  _161
REMARK   60  A    between atoms: _161  and  _162
REMARK   61  A    between atoms: _164  and  _166
REMARK   62  A    between atoms: _166  and  _167
REMARK   63  A    between atoms: _166  and  _169
REMARK   64  A    between atoms: _169  and  _170
REMARK   65  A    between atoms: _173  and  _175
REMARK   66  A    between atoms: _175  and  _176
REMARK   67  A    between atoms: _175  and  _178
REMARK   68  A    between atoms: _178  and  _179
REMARK   69  A    between atoms: _185  and  _187
REMARK   70  A    between atoms: _187  and  _188
REMARK   71  A    between atoms: _187  and  _190
REMARK   72  A    between atoms: _190  and  _191
REMARK   73  A    between atoms: _193  and  _195
REMARK   74  A    between atoms: _195  and  _196
REMARK   75  A    between atoms: _195  and  _198
REMARK   76  A    between atoms: _201  and  _203
REMARK   77  A    between atoms: _203  and  _204
REMARK   78  A    between atoms: _203  and  _206
REMARK   79  A    between atoms: _206  and  _207
REMARK   80  A    between atoms: _213  and  _215
REMARK   81  A    between atoms: _215  and  _216
REMARK   82  A    between atoms: _215  and  _218
REMARK   83  A    between atoms: _218  and  _219
REMARK   84  A    between atoms: _224  and  _226
REMARK   85  A    between atoms: _226  and  _227
REMARK   86  A    between atoms: _226  and  _229
REMARK   87  A    between atoms: _231  and  _233
REMARK   88  A    between atoms: _233  and  _234
REMARK   89  A    between atoms: _233  and  _236
REMARK   90  A    between atoms: _236  and  _237
REMARK   91  A    between atoms: _237  and  _238
REMARK   92  A    between atoms: _241  and  _243
REMARK   93  A    between atoms: _243  and  _244
REMARK   94  A    between atoms: _243  and  _246
REMARK   95  A    between atoms: _246  and  _247
REMARK   96  A    between atoms: _250  and  _252
REMARK   97  A    between atoms: _252  and  _253
REMARK   98  A    between atoms: _252  and  _255
REMARK   99  A    between atoms: _255  and  _256
REMARK  100  A    between atoms: _262  and  _264
REMARK  101  A    between atoms: _264  and  _265
REMARK  102  A    between atoms: _264  and  _267
REMARK  103  A    between atoms: _267  and  _268
REMARK  104  A    between atoms: _273  and  _275
REMARK  105  A    between atoms: _275  and  _276
REMARK  106  A    between atoms: _275  and  _278
REMARK  107  A    between atoms: _278  and  _279
REMARK  108  A    between atoms: _282  and  _284
REMARK  109  A    between atoms: _284  and  _285
REMARK  110  A    between atoms: _287  and  _289
REMARK  111  A    between atoms: _289  and  _290
REMARK                            x       y       z     vdW  Elec       q    Type
REMARK                         _______ _______ _______ _____ _____    ______ ____
ROOT
ATOM      1  O   HOH     1      63.564  36.479  -0.041  0.00  0.00    +0.000 OA
ENDROOT
TORSDOF 0
REMARK  Name = ../refined-set-2016/4rvr/4rvr_pocket.pdb
REMARK  111 active torsions:
REMARK  status: ('A' for Active; 'I' for Inactive)
REMARK    1  A    between atoms: _1  and  _3
REMARK    2  A    between atoms: _3  and  _4
REMARK    3  A    between atoms: _7  and  _9
REMARK    4  A    between atoms: _9  and  _10
REMARK    5  A    between atoms: _9  and  _12
REMARK    6  A    between atoms: _12  and  _13
REMARK    7  A    between atoms: _24  and  _25
REMARK    8  A    between atoms: _30  and  _32
REMARK    9  A    between atoms: _32  and  _33
REMARK   10  A    between atoms: _32  and  _35
REMARK   11  A    between atoms: _35  and  _36
REMARK   12  A    between atoms: _42  and  _44
REMARK   13  A    between atoms: _44  and  _45
REMARK   14  A    between atoms: _44  and  _47
REMARK   15  A    between atoms: _47  and  _48
REMARK   16  A    between atoms: _51  and  _53
REMARK   17  A    between atoms: _53  and  _54
REMARK   18  A    between atoms: _53  and  _56
REMARK   19  A    between atoms: _56  and  _57
REMARK   20  A    between atoms: _61  and  _62
REMARK   21  A    between atoms: _67  and  _69
REMARK   22  A    between atoms: _69  and  _70
REMARK   23  A    between atoms: _69  and  _72
REMARK   24  A    between atoms: _75  and  _77
REMARK   25  A    between atoms: _77  and  _78
REMARK   26  A    between atoms: _77  and  _80
REMARK   27  A    between atoms: _80  and  _81
REMARK   28  A    between atoms: _86  and  _88
REMARK   29  A    between atoms: _88  and  _89
REMARK   30  A    between atoms: _88  and  _91
REMARK   31  A    between atoms: _91  and  _92
REMARK   32  A    between atoms: _95  and  _97
REMARK   33  A    between atoms: _97  and  _98
REMARK   34  A    between atoms: _97  and  _100
REMARK   35  A    between atoms: _100  and  _101
REMARK   36  A    between atoms: _101  and  _102
REMARK   37  A    between atoms: _102  and  _103
REMARK   38  A    between atoms: _103  and  _104
REMARK   39  A    between atoms: _108  and  _110
REMARK   40  A    between atoms: _110  and  _111
REMARK   41  A    between atoms: _110  and  _113
REMARK   42  A    between atoms: _113  and  _114
REMARK   43  A    between atoms: _117  and  _119
REMARK   44  A    between atoms: _119  and  _120
REMARK   45  A    between atoms: _119  and  _122
REMARK   46  A    between atoms: _126  and  _127
REMARK   47  A    between atoms: _132  and  _134
REMARK   48  A    between atoms: _134  and  _135
REMARK   49  A    between atoms: _134  and  _137
REMARK   50  A    between atoms: _137  and  _138
REMARK   51  A    between atoms: _143  and  _144
REMARK   52  A    between atoms: _146  and  _148
REMARK   53  A    between atoms: _148  and  _149
REMARK   54  A    between atoms: _148  and  _151
REMARK   55  A    between atoms: _151  and  _152
REMARK   56  A    between atoms: _155  and  _157
REMARK   57  A    between atoms: _157  and  _158
REMARK   58  A    between atoms: _157  and  _160
REMARK   59  A    between atoms: _160  and  _161
REMARK   60  A    between atoms: _161  and  _162
REMARK   61  A    between atoms: _164  and  _166
REMARK   62  A    between atoms: _166  and  _167
REMARK   63  A    between atoms: _166  and  _169
REMARK   64  A    between atoms: _169  and  _170
REMARK   65  A    between atoms: _173  and  _175
REMARK   66  A    between atoms: _175  and  _176
REMARK   67  A    between atoms: _175  and  _178
REMARK   68  A    between atoms: _178  and  _179
REMARK   69  A    between atoms: _185  and  _187
REMARK   70  A    between atoms: _187  and  _188
REMARK   71  A    between atoms: _187  and  _190
REMARK   72  A    between atoms: _190  and  _191
REMARK   73  A    between atoms: _193  and  _195
REMARK   74  A    between atoms: _195  and  _196
REMARK   75  A    between atoms: _195  and  _198
REMARK   76  A    between atoms: _201  and  _203
REMARK   77  A    between atoms: _203  and  _204
REMARK   78  A    between atoms: _203  and  _206
REMARK   79  A    between atoms: _206  and  _207
REMARK   80  A    between atoms: _213  and  _215
REMARK   81  A    between atoms: _215  and  _216
REMARK   82  A    between atoms: _215  and  _218
REMARK   83  A    between atoms: _218  and  _219
REMARK   84  A    between atoms: _224  and  _226
REMARK   85  A    between atoms: _226  and  _227
REMARK   86  A    between atoms: _226  and  _229
REMARK   87  A    between atoms: _231  and  _233
REMARK   88  A    between atoms: _233  and  _234
REMARK   89  A    between atoms: _233  and  _236
REMARK   90  A    between atoms: _236  and  _237
REMARK   91  A    between atoms: _237  and  _238
REMARK   92  A    between atoms: _241  and  _243
REMARK   93  A    between atoms: _243  and  _244
REMARK   94  A    between atoms: _243  and  _246
REMARK   95  A    between atoms: _246  and  _247
REMARK   96  A    between atoms: _250  and  _252
REMARK   97  A    between atoms: _252  and  _253
REMARK   98  A    between atoms: _252  and  _255
REMARK   99  A    between atoms: _255  and  _256
REMARK  100  A    between atoms: _262  and  _264
REMARK  101  A    between atoms: _264  and  _265
REMARK  102  A    between atoms: _264  and  _267
REMARK  103  A    between atoms: _267  and  _268
REMARK  104  A    between atoms: _273  and  _275
REMARK  105  A    between atoms: _275  and  _276
REMARK  106  A    between atoms: _275  and  _278
REMARK  107  A    between atoms: _278  and  _279
REMARK  108  A    between atoms: _282  and  _284
REMARK  109  A    between atoms: _284  and  _285
REMARK  110  A    between atoms: _287  and  _289
REMARK  111  A    between atoms: _289  and  _290
REMARK                            x       y       z     vdW  Elec       q    Type
REMARK                         _______ _______ _______ _____ _____    ______ ____
ROOT
ATOM      1  O   HOH     1      74.515  32.275  -0.547  0.00  0.00    +0.000 OA
ENDROOT
TORSDOF 0
REMARK  Name = ../refined-set-2016/4rvr/4rvr_pocket.pdb
REMARK  111 active torsions:
REMARK  status: ('A' for Active; 'I' for Inactive)
REMARK    1  A    between atoms: _1  and  _3
REMARK    2  A    between atoms: _3  and  _4
REMARK    3  A    between atoms: _7  and  _9
REMARK    4  A    between atoms: _9  and  _10
REMARK    5  A    between atoms: _9  and  _12
REMARK    6  A    between atoms: _12  and  _13
REMARK    7  A    between atoms: _24  and  _25
REMARK    8  A    between atoms: _30  and  _32
REMARK    9  A    between atoms: _32  and  _33
REMARK   10  A    between atoms: _32  and  _35
REMARK   11  A    between atoms: _35  and  _36
REMARK   12  A    between atoms: _42  and  _44
REMARK   13  A    between atoms: _44  and  _45
REMARK   14  A    between atoms: _44  and  _47
REMARK   15  A    between atoms: _47  and  _48
REMARK   16  A    between atoms: _51  and  _53
REMARK   17  A    between atoms: _53  and  _54
REMARK   18  A    between atoms: _53  and  _56
REMARK   19  A    between atoms: _56  and  _57
REMARK   20  A    between atoms: _61  and  _62
REMARK   21  A    between atoms: _67  and  _69
REMARK   22  A    between atoms: _69  and  _70
REMARK   23  A    between atoms: _69  and  _72
REMARK   24  A    between atoms: _75  and  _77
REMARK   25  A    between atoms: _77  and  _78
REMARK   26  A    between atoms: _77  and  _80
REMARK   27  A    between atoms: _80  and  _81
REMARK   28  A    between atoms: _86  and  _88
REMARK   29  A    between atoms: _88  and  _89
REMARK   30  A    between atoms: _88  and  _91
REMARK   31  A    between atoms: _91  and  _92
REMARK   32  A    between atoms: _95  and  _97
REMARK   33  A    between atoms: _97  and  _98
REMARK   34  A    between atoms: _97  and  _100
REMARK   35  A    between atoms: _100  and  _101
REMARK   36  A    between atoms: _101  and  _102
REMARK   37  A    between atoms: _102  and  _103
REMARK   38  A    between atoms: _103  and  _104
REMARK   39  A    between atoms: _108  and  _110
REMARK   40  A    between atoms: _110  and  _111
REMARK   41  A    between atoms: _110  and  _113
REMARK   42  A    between atoms: _113  and  _114
REMARK   43  A    between atoms: _117  and  _119
REMARK   44  A    between atoms: _119  and  _120
REMARK   45  A    between atoms: _119  and  _122
REMARK   46  A    between atoms: _126  and  _127
REMARK   47  A    between atoms: _132  and  _134
REMARK   48  A    between atoms: _134  and  _135
REMARK   49  A    between atoms: _134  and  _137
REMARK   50  A    between atoms: _137  and  _138
REMARK   51  A    between atoms: _143  and  _144
REMARK   52  A    between atoms: _146  and  _148
REMARK   53  A    between atoms: _148  and  _149
REMARK   54  A    between atoms: _148  and  _151
REMARK   55  A    between atoms: _151  and  _152
REMARK   56  A    between atoms: _155  and  _157
REMARK   57  A    between atoms: _157  and  _158
REMARK   58  A    between atoms: _157  and  _160
REMARK   59  A    between atoms: _160  and  _161
REMARK   60  A    between atoms: _161  and  _162
REMARK   61  A    between atoms: _164  and  _166
REMARK   62  A    between atoms: _166  and  _167
REMARK   63  A    between atoms: _166  and  _169
REMARK   64  A    between atoms: _169  and  _170
REMARK   65  A    between atoms: _173  and  _175
REMARK   66  A    between atoms: _175  and  _176
REMARK   67  A    between atoms: _175  and  _178
REMARK   68  A    between atoms: _178  and  _179
REMARK   69  A    between atoms: _185  and  _187
REMARK   70  A    between atoms: _187  and  _188
REMARK   71  A    between atoms: _187  and  _190
REMARK   72  A    between atoms: _190  and  _191
REMARK   73  A    between atoms: _193  and  _195
REMARK   74  A    between atoms: _195  and  _196
REMARK   75  A    between atoms: _195  and  _198
REMARK   76  A    between atoms: _201  and  _203
REMARK   77  A    between atoms: _203  and  _204
REMARK   78  A    between atoms: _203  and  _206
REMARK   79  A    between atoms: _206  and  _207
REMARK   80  A    between atoms: _213  and  _215
REMARK   81  A    between atoms: _215  and  _216
REMARK   82  A    between atoms: _215  and  _218
REMARK   83  A    between atoms: _218  and  _219
REMARK   84  A    between atoms: _224  and  _226
REMARK   85  A    between atoms: _226  and  _227
REMARK   86  A    between atoms: _226  and  _229
REMARK   87  A    between atoms: _231  and  _233
REMARK   88  A    between atoms: _233  and  _234
REMARK   89  A    between atoms: _233  and  _236
REMARK   90  A    between atoms: _236  and  _237
REMARK   91  A    between atoms: _237  and  _238
REMARK   92  A    between atoms: _241  and  _243
REMARK   93  A    between atoms: _243  and  _244
REMARK   94  A    between atoms: _243  and  _246
REMARK   95  A    between atoms: _246  and  _247
REMARK   96  A    between atoms: _250  and  _252
REMARK   97  A    between atoms: _252  and  _253
REMARK   98  A    between atoms: _252  and  _255
REMARK   99  A    between atoms: _255  and  _256
REMARK  100  A    between atoms: _262  and  _264
REMARK  101  A    between atoms: _264  and  _265
REMARK  102  A    between atoms: _264  and  _267
REMARK  103  A    between atoms: _267  and  _268
REMARK  104  A    between atoms: _273  and  _275
REMARK  105  A    between atoms: _275  and  _276
REMARK  106  A    between atoms: _275  and  _278
REMARK  107  A    between atoms: _278  and  _279
REMARK  108  A    between atoms: _282  and  _284
REMARK  109  A    between atoms: _284  and  _285
REMARK  110  A    between atoms: _287  and  _289
REMARK  111  A    between atoms: _289  and  _290
REMARK                            x       y       z     vdW  Elec       q    Type
REMARK                         _______ _______ _______ _____ _____    ______ ____
ROOT
ATOM      1  O   HOH     1      70.846  40.279  -7.969  0.00  0.00    +0.000 OA
ENDROOT
TORSDOF 0
REMARK  Name = ../refined-set-2016/4rvr/4rvr_pocket.pdb
REMARK  111 active torsions:
REMARK  status: ('A' for Active; 'I' for Inactive)
REMARK    1  A    between atoms: _1  and  _3
REMARK    2  A    between atoms: _3  and  _4
REMARK    3  A    between atoms: _7  and  _9
REMARK    4  A    between atoms: _9  and  _10
REMARK    5  A    between atoms: _9  and  _12
REMARK    6  A    between atoms: _12  and  _13
REMARK    7  A    between atoms: _24  and  _25
REMARK    8  A    between atoms: _30  and  _32
REMARK    9  A    between atoms: _32  and  _33
REMARK   10  A    between atoms: _32  and  _35
REMARK   11  A    between atoms: _35  and  _36
REMARK   12  A    between atoms: _42  and  _44
REMARK   13  A    between atoms: _44  and  _45
REMARK   14  A    between atoms: _44  and  _47
REMARK   15  A    between atoms: _47  and  _48
REMARK   16  A    between atoms: _51  and  _53
REMARK   17  A    between atoms: _53  and  _54
REMARK   18  A    between atoms: _53  and  _56
REMARK   19  A    between atoms: _56  and  _57
REMARK   20  A    between atoms: _61  and  _62
REMARK   21  A    between atoms: _67  and  _69
REMARK   22  A    between atoms: _69  and  _70
REMARK   23  A    between atoms: _69  and  _72
REMARK   24  A    between atoms: _75  and  _77
REMARK   25  A    between atoms: _77  and  _78
REMARK   26  A    between atoms: _77  and  _80
REMARK   27  A    between atoms: _80  and  _81
REMARK   28  A    between atoms: _86  and  _88
REMARK   29  A    between atoms: _88  and  _89
REMARK   30  A    between atoms: _88  and  _91
REMARK   31  A    between atoms: _91  and  _92
REMARK   32  A    between atoms: _95  and  _97
REMARK   33  A    between atoms: _97  and  _98
REMARK   34  A    between atoms: _97  and  _100
REMARK   35  A    between atoms: _100  and  _101
REMARK   36  A    between atoms: _101  and  _102
REMARK   37  A    between atoms: _102  and  _103
REMARK   38  A    between atoms: _103  and  _104
REMARK   39  A    between atoms: _108  and  _110
REMARK   40  A    between atoms: _110  and  _111
REMARK   41  A    between atoms: _110  and  _113
REMARK   42  A    between atoms: _113  and  _114
REMARK   43  A    between atoms: _117  and  _119
REMARK   44  A    between atoms: _119  and  _120
REMARK   45  A    between atoms: _119  and  _122
REMARK   46  A    between atoms: _126  and  _127
REMARK   47  A    between atoms: _132  and  _134
REMARK   48  A    between atoms: _134  and  _135
REMARK   49  A    between atoms: _134  and  _137
REMARK   50  A    between atoms: _137  and  _138
REMARK   51  A    between atoms: _143  and  _144
REMARK   52  A    between atoms: _146  and  _148
REMARK   53  A    between atoms: _148  and  _149
REMARK   54  A    between atoms: _148  and  _151
REMARK   55  A    between atoms: _151  and  _152
REMARK   56  A    between atoms: _155  and  _157
REMARK   57  A    between atoms: _157  and  _158
REMARK   58  A    between atoms: _157  and  _160
REMARK   59  A    between atoms: _160  and  _161
REMARK   60  A    between atoms: _161  and  _162
REMARK   61  A    between atoms: _164  and  _166
REMARK   62  A    between atoms: _166  and  _167
REMARK   63  A    between atoms: _166  and  _169
REMARK   64  A    between atoms: _169  and  _170
REMARK   65  A    between atoms: _173  and  _175
REMARK   66  A    between atoms: _175  and  _176
REMARK   67  A    between atoms: _175  and  _178
REMARK   68  A    between atoms: _178  and  _179
REMARK   69  A    between atoms: _185  and  _187
REMARK   70  A    between atoms: _187  and  _188
REMARK   71  A    between atoms: _187  and  _190
REMARK   72  A    between atoms: _190  and  _191
REMARK   73  A    between atoms: _193  and  _195
REMARK   74  A    between atoms: _195  and  _196
REMARK   75  A    between atoms: _195  and  _198
REMARK   76  A    between atoms: _201  and  _203
REMARK   77  A    between atoms: _203  and  _204
REMARK   78  A    between atoms: _203  and  _206
REMARK   79  A    between atoms: _206  and  _207
REMARK   80  A    between atoms: _213  and  _215
REMARK   81  A    between atoms: _215  and  _216
REMARK   82  A    between atoms: _215  and  _218
REMARK   83  A    between atoms: _218  and  _219
REMARK   84  A    between atoms: _224  and  _226
REMARK   85  A    between atoms: _226  and  _227
REMARK   86  A    between atoms: _226  and  _229
REMARK   87  A    between atoms: _231  and  _233
REMARK   88  A    between atoms: _233  and  _234
REMARK   89  A    between atoms: _233  and  _236
REMARK   90  A    between atoms: _236  and  _237
REMARK   91  A    between atoms: _237  and  _238
REMARK   92  A    between atoms: _241  and  _243
REMARK   93  A    between atoms: _243  and  _244
REMARK   94  A    between atoms: _243  and  _246
REMARK   95  A    between atoms: _246  and  _247
REMARK   96  A    between atoms: _250  and  _252
REMARK   97  A    between atoms: _252  and  _253
REMARK   98  A    between atoms: _252  and  _255
REMARK   99  A    between atoms: _255  and  _256
REMARK  100  A    between atoms: _262  and  _264
REMARK  101  A    between atoms: _264  and  _265
REMARK  102  A    between atoms: _264  and  _267
REMARK  103  A    between atoms: _267  and  _268
REMARK  104  A    between atoms: _273  and  _275
REMARK  105  A    between atoms: _275  and  _276
REMARK  106  A    between atoms: _275  and  _278
REMARK  107  A    between atoms: _278  and  _279
REMARK  108  A    between atoms: _282  and  _284
REMARK  109  A    between atoms: _284  and  _285
REMARK  110  A    between atoms: _287  and  _289
REMARK  111  A    between atoms: _289  and  _290
REMARK                            x       y       z     vdW  Elec       q    Type
REMARK                         _______ _______ _______ _____ _____    ______ ____
ROOT
ATOM      1  O   HOH     1      66.476  39.364   7.293  0.00  0.00    +0.000 OA
ENDROOT
TORSDOF 0
REMARK  Name = ../refined-set-2016/4rvr/4rvr_pocket.pdb
REMARK  111 active torsions:
REMARK  status: ('A' for Active; 'I' for Inactive)
REMARK    1  A    between atoms: _1  and  _3
REMARK    2  A    between atoms: _3  and  _4
REMARK    3  A    between atoms: _7  and  _9
REMARK    4  A    between atoms: _9  and  _10
REMARK    5  A    between atoms: _9  and  _12
REMARK    6  A    between atoms: _12  and  _13
REMARK    7  A    between atoms: _24  and  _25
REMARK    8  A    between atoms: _30  and  _32
REMARK    9  A    between atoms: _32  and  _33
REMARK   10  A    between atoms: _32  and  _35
REMARK   11  A    between atoms: _35  and  _36
REMARK   12  A    between atoms: _42  and  _44
REMARK   13  A    between atoms: _44  and  _45
REMARK   14  A    between atoms: _44  and  _47
REMARK   15  A    between atoms: _47  and  _48
REMARK   16  A    between atoms: _51  and  _53
REMARK   17  A    between atoms: _53  and  _54
REMARK   18  A    between atoms: _53  and  _56
REMARK   19  A    between atoms: _56  and  _57
REMARK   20  A    between atoms: _61  and  _62
REMARK   21  A    between atoms: _67  and  _69
REMARK   22  A    between atoms: _69  and  _70
REMARK   23  A    between atoms: _69  and  _72
REMARK   24  A    between atoms: _75  and  _77
REMARK   25  A    between atoms: _77  and  _78
REMARK   26  A    between atoms: _77  and  _80
REMARK   27  A    between atoms: _80  and  _81
REMARK   28  A    between atoms: _86  and  _88
REMARK   29  A    between atoms: _88  and  _89
REMARK   30  A    between atoms: _88  and  _91
REMARK   31  A    between atoms: _91  and  _92
REMARK   32  A    between atoms: _95  and  _97
REMARK   33  A    between atoms: _97  and  _98
REMARK   34  A    between atoms: _97  and  _100
REMARK   35  A    between atoms: _100  and  _101
REMARK   36  A    between atoms: _101  and  _102
REMARK   37  A    between atoms: _102  and  _103
REMARK   38  A    between atoms: _103  and  _104
REMARK   39  A    between atoms: _108  and  _110
REMARK   40  A    between atoms: _110  and  _111
REMARK   41  A    between atoms: _110  and  _113
REMARK   42  A    between atoms: _113  and  _114
REMARK   43  A    between atoms: _117  and  _119
REMARK   44  A    between atoms: _119  and  _120
REMARK   45  A    between atoms: _119  and  _122
REMARK   46  A    between atoms: _126  and  _127
REMARK   47  A    between atoms: _132  and  _134
REMARK   48  A    between atoms: _134  and  _135
REMARK   49  A    between atoms: _134  and  _137
REMARK   50  A    between atoms: _137  and  _138
REMARK   51  A    between atoms: _143  and  _144
REMARK   52  A    between atoms: _146  and  _148
REMARK   53  A    between atoms: _148  and  _149
REMARK   54  A    between atoms: _148  and  _151
REMARK   55  A    between atoms: _151  and  _152
REMARK   56  A    between atoms: _155  and  _157
REMARK   57  A    between atoms: _157  and  _158
REMARK   58  A    between atoms: _157  and  _160
REMARK   59  A    between atoms: _160  and  _161
REMARK   60  A    between atoms: _161  and  _162
REMARK   61  A    between atoms: _164  and  _166
REMARK   62  A    between atoms: _166  and  _167
REMARK   63  A    between atoms: _166  and  _169
REMARK   64  A    between atoms: _169  and  _170
REMARK   65  A    between atoms: _173  and  _175
REMARK   66  A    between atoms: _175  and  _176
REMARK   67  A    between atoms: _175  and  _178
REMARK   68  A    between atoms: _178  and  _179
REMARK   69  A    between atoms: _185  and  _187
REMARK   70  A    between atoms: _187  and  _188
REMARK   71  A    between atoms: _187  and  _190
REMARK   72  A    between atoms: _190  and  _191
REMARK   73  A    between atoms: _193  and  _195
REMARK   74  A    between atoms: _195  and  _196
REMARK   75  A    between atoms: _195  and  _198
REMARK   76  A    between atoms: _201  and  _203
REMARK   77  A    between atoms: _203  and  _204
REMARK   78  A    between atoms: _203  and  _206
REMARK   79  A    between atoms: _206  and  _207
REMARK   80  A    between atoms: _213  and  _215
REMARK   81  A    between atoms: _215  and  _216
REMARK   82  A    between atoms: _215  and  _218
REMARK   83  A    between atoms: _218  and  _219
REMARK   84  A    between atoms: _224  and  _226
REMARK   85  A    between atoms: _226  and  _227
REMARK   86  A    between atoms: _226  and  _229
REMARK   87  A    between atoms: _231  and  _233
REMARK   88  A    between atoms: _233  and  _234
REMARK   89  A    between atoms: _233  and  _236
REMARK   90  A    between atoms: _236  and  _237
REMARK   91  A    between atoms: _237  and  _238
REMARK   92  A    between atoms: _241  and  _243
REMARK   93  A    between atoms: _243  and  _244
REMARK   94  A    between atoms: _243  and  _246
REMARK   95  A    between atoms: _246  and  _247
REMARK   96  A    between atoms: _250  and  _252
REMARK   97  A    between atoms: _252  and  _253
REMARK   98  A    between atoms: _252  and  _255
REMARK   99  A    between atoms: _255  and  _256
REMARK  100  A    between atoms: _262  and  _264
REMARK  101  A    between atoms: _264  and  _265
REMARK  102  A    between atoms: _264  and  _267
REMARK  103  A    between atoms: _267  and  _268
REMARK  104  A    between atoms: _273  and  _275
REMARK  105  A    between atoms: _275  and  _276
REMARK  106  A    between atoms: _275  and  _278
REMARK  107  A    between atoms: _278  and  _279
REMARK  108  A    between atoms: _282  and  _284
REMARK  109  A    between atoms: _284  and  _285
REMARK  110  A    between atoms: _287  and  _289
REMARK  111  A    between atoms: _289  and  _290
REMARK                            x       y       z     vdW  Elec       q    Type
REMARK                         _______ _______ _______ _____ _____    ______ ____
ROOT
ATOM      1  O   HOH     1      70.479  40.141   9.627  0.00  0.00    +0.000 OA
ENDROOT
TORSDOF 0
REMARK  Name = ../refined-set-2016/4rvr/4rvr_pocket.pdb
REMARK  111 active torsions:
REMARK  status: ('A' for Active; 'I' for Inactive)
REMARK    1  A    between atoms: _1  and  _3
REMARK    2  A    between atoms: _3  and  _4
REMARK    3  A    between atoms: _7  and  _9
REMARK    4  A    between atoms: _9  and  _10
REMARK    5  A    between atoms: _9  and  _12
REMARK    6  A    between atoms: _12  and  _13
REMARK    7  A    between atoms: _24  and  _25
REMARK    8  A    between atoms: _30  and  _32
REMARK    9  A    between atoms: _32  and  _33
REMARK   10  A    between atoms: _32  and  _35
REMARK   11  A    between atoms: _35  and  _36
REMARK   12  A    between atoms: _42  and  _44
REMARK   13  A    between atoms: _44  and  _45
REMARK   14  A    between atoms: _44  and  _47
REMARK   15  A    between atoms: _47  and  _48
REMARK   16  A    between atoms: _51  and  _53
REMARK   17  A    between atoms: _53  and  _54
REMARK   18  A    between atoms: _53  and  _56
REMARK   19  A    between atoms: _56  and  _57
REMARK   20  A    between atoms: _61  and  _62
REMARK   21  A    between atoms: _67  and  _69
REMARK   22  A    between atoms: _69  and  _70
REMARK   23  A    between atoms: _69  and  _72
REMARK   24  A    between atoms: _75  and  _77
REMARK   25  A    between atoms: _77  and  _78
REMARK   26  A    between atoms: _77  and  _80
REMARK   27  A    between atoms: _80  and  _81
REMARK   28  A    between atoms: _86  and  _88
REMARK   29  A    between atoms: _88  and  _89
REMARK   30  A    between atoms: _88  and  _91
REMARK   31  A    between atoms: _91  and  _92
REMARK   32  A    between atoms: _95  and  _97
REMARK   33  A    between atoms: _97  and  _98
REMARK   34  A    between atoms: _97  and  _100
REMARK   35  A    between atoms: _100  and  _101
REMARK   36  A    between atoms: _101  and  _102
REMARK   37  A    between atoms: _102  and  _103
REMARK   38  A    between atoms: _103  and  _104
REMARK   39  A    between atoms: _108  and  _110
REMARK   40  A    between atoms: _110  and  _111
REMARK   41  A    between atoms: _110  and  _113
REMARK   42  A    between atoms: _113  and  _114
REMARK   43  A    between atoms: _117  and  _119
REMARK   44  A    between atoms: _119  and  _120
REMARK   45  A    between atoms: _119  and  _122
REMARK   46  A    between atoms: _126  and  _127
REMARK   47  A    between atoms: _132  and  _134
REMARK   48  A    between atoms: _134  and  _135
REMARK   49  A    between atoms: _134  and  _137
REMARK   50  A    between atoms: _137  and  _138
REMARK   51  A    between atoms: _143  and  _144
REMARK   52  A    between atoms: _146  and  _148
REMARK   53  A    between atoms: _148  and  _149
REMARK   54  A    between atoms: _148  and  _151
REMARK   55  A    between atoms: _151  and  _152
REMARK   56  A    between atoms: _155  and  _157
REMARK   57  A    between atoms: _157  and  _158
REMARK   58  A    between atoms: _157  and  _160
REMARK   59  A    between atoms: _160  and  _161
REMARK   60  A    between atoms: _161  and  _162
REMARK   61  A    between atoms: _164  and  _166
REMARK   62  A    between atoms: _166  and  _167
REMARK   63  A    between atoms: _166  and  _169
REMARK   64  A    between atoms: _169  and  _170
REMARK   65  A    between atoms: _173  and  _175
REMARK   66  A    between atoms: _175  and  _176
REMARK   67  A    between atoms: _175  and  _178
REMARK   68  A    between atoms: _178  and  _179
REMARK   69  A    between atoms: _185  and  _187
REMARK   70  A    between atoms: _187  and  _188
REMARK   71  A    between atoms: _187  and  _190
REMARK   72  A    between atoms: _190  and  _191
REMARK   73  A    between atoms: _193  and  _195
REMARK   74  A    between atoms: _195  and  _196
REMARK   75  A    between atoms: _195  and  _198
REMARK   76  A    between atoms: _201  and  _203
REMARK   77  A    between atoms: _203  and  _204
REMARK   78  A    between atoms: _203  and  _206
REMARK   79  A    between atoms: _206  and  _207
REMARK   80  A    between atoms: _213  and  _215
REMARK   81  A    between atoms: _215  and  _216
REMARK   82  A    between atoms: _215  and  _218
REMARK   83  A    between atoms: _218  and  _219
REMARK   84  A    between atoms: _224  and  _226
REMARK   85  A    between atoms: _226  and  _227
REMARK   86  A    between atoms: _226  and  _229
REMARK   87  A    between atoms: _231  and  _233
REMARK   88  A    between atoms: _233  and  _234
REMARK   89  A    between atoms: _233  and  _236
REMARK   90  A    between atoms: _236  and  _237
REMARK   91  A    between atoms: _237  and  _238
REMARK   92  A    between atoms: _241  and  _243
REMARK   93  A    between atoms: _243  and  _244
REMARK   94  A    between atoms: _243  and  _246
REMARK   95  A    between atoms: _246  and  _247
REMARK   96  A    between atoms: _250  and  _252
REMARK   97  A    between atoms: _252  and  _253
REMARK   98  A    between atoms: _252  and  _255
REMARK   99  A    between atoms: _255  and  _256
REMARK  100  A    between atoms: _262  and  _264
REMARK  101  A    between atoms: _264  and  _265
REMARK  102  A    between atoms: _264  and  _267
REMARK  103  A    between atoms: _267  and  _268
REMARK  104  A    between atoms: _273  and  _275
REMARK  105  A    between atoms: _275  and  _276
REMARK  106  A    between atoms: _275  and  _278
REMARK  107  A    between atoms: _278  and  _279
REMARK  108  A    between atoms: _282  and  _284
REMARK  109  A    between atoms: _284  and  _285
REMARK  110  A    between atoms: _287  and  _289
REMARK  111  A    between atoms: _289  and  _290
REMARK                            x       y       z     vdW  Elec       q    Type
REMARK                         _______ _______ _______ _____ _____    ______ ____
ROOT
ATOM      1  O   HOH     1      72.163  38.734   9.147  0.00  0.00    +0.000 OA
ENDROOT
TORSDOF 0
REMARK  Name = ../refined-set-2016/4rvr/4rvr_pocket.pdb
REMARK  111 active torsions:
REMARK  status: ('A' for Active; 'I' for Inactive)
REMARK    1  A    between atoms: _1  and  _3
REMARK    2  A    between atoms: _3  and  _4
REMARK    3  A    between atoms: _7  and  _9
REMARK    4  A    between atoms: _9  and  _10
REMARK    5  A    between atoms: _9  and  _12
REMARK    6  A    between atoms: _12  and  _13
REMARK    7  A    between atoms: _24  and  _25
REMARK    8  A    between atoms: _30  and  _32
REMARK    9  A    between atoms: _32  and  _33
REMARK   10  A    between atoms: _32  and  _35
REMARK   11  A    between atoms: _35  and  _36
REMARK   12  A    between atoms: _42  and  _44
REMARK   13  A    between atoms: _44  and  _45
REMARK   14  A    between atoms: _44  and  _47
REMARK   15  A    between atoms: _47  and  _48
REMARK   16  A    between atoms: _51  and  _53
REMARK   17  A    between atoms: _53  and  _54
REMARK   18  A    between atoms: _53  and  _56
REMARK   19  A    between atoms: _56  and  _57
REMARK   20  A    between atoms: _61  and  _62
REMARK   21  A    between atoms: _67  and  _69
REMARK   22  A    between atoms: _69  and  _70
REMARK   23  A    between atoms: _69  and  _72
REMARK   24  A    between atoms: _75  and  _77
REMARK   25  A    between atoms: _77  and  _78
REMARK   26  A    between atoms: _77  and  _80
REMARK   27  A    between atoms: _80  and  _81
REMARK   28  A    between atoms: _86  and  _88
REMARK   29  A    between atoms: _88  and  _89
REMARK   30  A    between atoms: _88  and  _91
REMARK   31  A    between atoms: _91  and  _92
REMARK   32  A    between atoms: _95  and  _97
REMARK   33  A    between atoms: _97  and  _98
REMARK   34  A    between atoms: _97  and  _100
REMARK   35  A    between atoms: _100  and  _101
REMARK   36  A    between atoms: _101  and  _102
REMARK   37  A    between atoms: _102  and  _103
REMARK   38  A    between atoms: _103  and  _104
REMARK   39  A    between atoms: _108  and  _110
REMARK   40  A    between atoms: _110  and  _111
REMARK   41  A    between atoms: _110  and  _113
REMARK   42  A    between atoms: _113  and  _114
REMARK   43  A    between atoms: _117  and  _119
REMARK   44  A    between atoms: _119  and  _120
REMARK   45  A    between atoms: _119  and  _122
REMARK   46  A    between atoms: _126  and  _127
REMARK   47  A    between atoms: _132  and  _134
REMARK   48  A    between atoms: _134  and  _135
REMARK   49  A    between atoms: _134  and  _137
REMARK   50  A    between atoms: _137  and  _138
REMARK   51  A    between atoms: _143  and  _144
REMARK   52  A    between atoms: _146  and  _148
REMARK   53  A    between atoms: _148  and  _149
REMARK   54  A    between atoms: _148  and  _151
REMARK   55  A    between atoms: _151  and  _152
REMARK   56  A    between atoms: _155  and  _157
REMARK   57  A    between atoms: _157  and  _158
REMARK   58  A    between atoms: _157  and  _160
REMARK   59  A    between atoms: _160  and  _161
REMARK   60  A    between atoms: _161  and  _162
REMARK   61  A    between atoms: _164  and  _166
REMARK   62  A    between atoms: _166  and  _167
REMARK   63  A    between atoms: _166  and  _169
REMARK   64  A    between atoms: _169  and  _170
REMARK   65  A    between atoms: _173  and  _175
REMARK   66  A    between atoms: _175  and  _176
REMARK   67  A    between atoms: _175  and  _178
REMARK   68  A    between atoms: _178  and  _179
REMARK   69  A    between atoms: _185  and  _187
REMARK   70  A    between atoms: _187  and  _188
REMARK   71  A    between atoms: _187  and  _190
REMARK   72  A    between atoms: _190  and  _191
REMARK   73  A    between atoms: _193  and  _195
REMARK   74  A    between atoms: _195  and  _196
REMARK   75  A    between atoms: _195  and  _198
REMARK   76  A    between atoms: _201  and  _203
REMARK   77  A    between atoms: _203  and  _204
REMARK   78  A    between atoms: _203  and  _206
REMARK   79  A    between atoms: _206  and  _207
REMARK   80  A    between atoms: _213  and  _215
REMARK   81  A    between atoms: _215  and  _216
REMARK   82  A    between atoms: _215  and  _218
REMARK   83  A    between atoms: _218  and  _219
REMARK   84  A    between atoms: _224  and  _226
REMARK   85  A    between atoms: _226  and  _227
REMARK   86  A    between atoms: _226  and  _229
REMARK   87  A    between atoms: _231  and  _233
REMARK   88  A    between atoms: _233  and  _234
REMARK   89  A    between atoms: _233  and  _236
REMARK   90  A    between atoms: _236  and  _237
REMARK   91  A    between atoms: _237  and  _238
REMARK   92  A    between atoms: _241  and  _243
REMARK   93  A    between atoms: _243  and  _244
REMARK   94  A    between atoms: _243  and  _246
REMARK   95  A    between atoms: _246  and  _247
REMARK   96  A    between atoms: _250  and  _252
REMARK   97  A    between atoms: _252  and  _253
REMARK   98  A    between atoms: _252  and  _255
REMARK   99  A    between atoms: _255  and  _256
REMARK  100  A    between atoms: _262  and  _264
REMARK  101  A    between atoms: _264  and  _265
REMARK  102  A    between atoms: _264  and  _267
REMARK  103  A    between atoms: _267  and  _268
REMARK  104  A    between atoms: _273  and  _275
REMARK  105  A    between atoms: _275  and  _276
REMARK  106  A    between atoms: _275  and  _278
REMARK  107  A    between atoms: _278  and  _279
REMARK  108  A    between atoms: _282  and  _284
REMARK  109  A    between atoms: _284  and  _285
REMARK  110  A    between atoms: _287  and  _289
REMARK  111  A    between atoms: _289  and  _290
REMARK                            x       y       z     vdW  Elec       q    Type
REMARK                         _______ _______ _______ _____ _____    ______ ____
ROOT
ATOM      1  O   HOH     1      72.549  36.661   7.206  0.00  0.00    +0.000 OA
ENDROOT
TORSDOF 0
REMARK  Name = ../refined-set-2016/4rvr/4rvr_pocket.pdb
REMARK  111 active torsions:
REMARK  status: ('A' for Active; 'I' for Inactive)
REMARK    1  A    between atoms: _1  and  _3
REMARK    2  A    between atoms: _3  and  _4
REMARK    3  A    between atoms: _7  and  _9
REMARK    4  A    between atoms: _9  and  _10
REMARK    5  A    between atoms: _9  and  _12
REMARK    6  A    between atoms: _12  and  _13
REMARK    7  A    between atoms: _24  and  _25
REMARK    8  A    between atoms: _30  and  _32
REMARK    9  A    between atoms: _32  and  _33
REMARK   10  A    between atoms: _32  and  _35
REMARK   11  A    between atoms: _35  and  _36
REMARK   12  A    between atoms: _42  and  _44
REMARK   13  A    between atoms: _44  and  _45
REMARK   14  A    between atoms: _44  and  _47
REMARK   15  A    between atoms: _47  and  _48
REMARK   16  A    between atoms: _51  and  _53
REMARK   17  A    between atoms: _53  and  _54
REMARK   18  A    between atoms: _53  and  _56
REMARK   19  A    between atoms: _56  and  _57
REMARK   20  A    between atoms: _61  and  _62
REMARK   21  A    between atoms: _67  and  _69
REMARK   22  A    between atoms: _69  and  _70
REMARK   23  A    between atoms: _69  and  _72
REMARK   24  A    between atoms: _75  and  _77
REMARK   25  A    between atoms: _77  and  _78
REMARK   26  A    between atoms: _77  and  _80
REMARK   27  A    between atoms: _80  and  _81
REMARK   28  A    between atoms: _86  and  _88
REMARK   29  A    between atoms: _88  and  _89
REMARK   30  A    between atoms: _88  and  _91
REMARK   31  A    between atoms: _91  and  _92
REMARK   32  A    between atoms: _95  and  _97
REMARK   33  A    between atoms: _97  and  _98
REMARK   34  A    between atoms: _97  and  _100
REMARK   35  A    between atoms: _100  and  _101
REMARK   36  A    between atoms: _101  and  _102
REMARK   37  A    between atoms: _102  and  _103
REMARK   38  A    between atoms: _103  and  _104
REMARK   39  A    between atoms: _108  and  _110
REMARK   40  A    between atoms: _110  and  _111
REMARK   41  A    between atoms: _110  and  _113
REMARK   42  A    between atoms: _113  and  _114
REMARK   43  A    between atoms: _117  and  _119
REMARK   44  A    between atoms: _119  and  _120
REMARK   45  A    between atoms: _119  and  _122
REMARK   46  A    between atoms: _126  and  _127
REMARK   47  A    between atoms: _132  and  _134
REMARK   48  A    between atoms: _134  and  _135
REMARK   49  A    between atoms: _134  and  _137
REMARK   50  A    between atoms: _137  and  _138
REMARK   51  A    between atoms: _143  and  _144
REMARK   52  A    between atoms: _146  and  _148
REMARK   53  A    between atoms: _148  and  _149
REMARK   54  A    between atoms: _148  and  _151
REMARK   55  A    between atoms: _151  and  _152
REMARK   56  A    between atoms: _155  and  _157
REMARK   57  A    between atoms: _157  and  _158
REMARK   58  A    between atoms: _157  and  _160
REMARK   59  A    between atoms: _160  and  _161
REMARK   60  A    between atoms: _161  and  _162
REMARK   61  A    between atoms: _164  and  _166
REMARK   62  A    between atoms: _166  and  _167
REMARK   63  A    between atoms: _166  and  _169
REMARK   64  A    between atoms: _169  and  _170
REMARK   65  A    between atoms: _173  and  _175
REMARK   66  A    between atoms: _175  and  _176
REMARK   67  A    between atoms: _175  and  _178
REMARK   68  A    between atoms: _178  and  _179
REMARK   69  A    between atoms: _185  and  _187
REMARK   70  A    between atoms: _187  and  _188
REMARK   71  A    between atoms: _187  and  _190
REMARK   72  A    between atoms: _190  and  _191
REMARK   73  A    between atoms: _193  and  _195
REMARK   74  A    between atoms: _195  and  _196
REMARK   75  A    between atoms: _195  and  _198
REMARK   76  A    between atoms: _201  and  _203
REMARK   77  A    between atoms: _203  and  _204
REMARK   78  A    between atoms: _203  and  _206
REMARK   79  A    between atoms: _206  and  _207
REMARK   80  A    between atoms: _213  and  _215
REMARK   81  A    between atoms: _215  and  _216
REMARK   82  A    between atoms: _215  and  _218
REMARK   83  A    between atoms: _218  and  _219
REMARK   84  A    between atoms: _224  and  _226
REMARK   85  A    between atoms: _226  and  _227
REMARK   86  A    between atoms: _226  and  _229
REMARK   87  A    between atoms: _231  and  _233
REMARK   88  A    between atoms: _233  and  _234
REMARK   89  A    between atoms: _233  and  _236
REMARK   90  A    between atoms: _236  and  _237
REMARK   91  A    between atoms: _237  and  _238
REMARK   92  A    between atoms: _241  and  _243
REMARK   93  A    between atoms: _243  and  _244
REMARK   94  A    between atoms: _243  and  _246
REMARK   95  A    between atoms: _246  and  _247
REMARK   96  A    between atoms: _250  and  _252
REMARK   97  A    between atoms: _252  and  _253
REMARK   98  A    between atoms: _252  and  _255
REMARK   99  A    between atoms: _255  and  _256
REMARK  100  A    between atoms: _262  and  _264
REMARK  101  A    between atoms: _264  and  _265
REMARK  102  A    between atoms: _264  and  _267
REMARK  103  A    between atoms: _267  and  _268
REMARK  104  A    between atoms: _273  and  _275
REMARK  105  A    between atoms: _275  and  _276
REMARK  106  A    between atoms: _275  and  _278
REMARK  107  A    between atoms: _278  and  _279
REMARK  108  A    between atoms: _282  and  _284
REMARK  109  A    between atoms: _284  and  _285
REMARK  110  A    between atoms: _287  and  _289
REMARK  111  A    between atoms: _289  and  _290
REMARK                            x       y       z     vdW  Elec       q    Type
REMARK                         _______ _______ _______ _____ _____    ______ ____
ROOT
ATOM      1  O   HOH     1      74.491  37.055   5.584  0.00  0.00    +0.000 OA
ENDROOT
TORSDOF 0
REMARK  Name = ../refined-set-2016/4rvr/4rvr_pocket.pdb
REMARK  111 active torsions:
REMARK  status: ('A' for Active; 'I' for Inactive)
REMARK    1  A    between atoms: _1  and  _3
REMARK    2  A    between atoms: _3  and  _4
REMARK    3  A    between atoms: _7  and  _9
REMARK    4  A    between atoms: _9  and  _10
REMARK    5  A    between atoms: _9  and  _12
REMARK    6  A    between atoms: _12  and  _13
REMARK    7  A    between atoms: _24  and  _25
REMARK    8  A    between atoms: _30  and  _32
REMARK    9  A    between atoms: _32  and  _33
REMARK   10  A    between atoms: _32  and  _35
REMARK   11  A    between atoms: _35  and  _36
REMARK   12  A    between atoms: _42  and  _44
REMARK   13  A    between atoms: _44  and  _45
REMARK   14  A    between atoms: _44  and  _47
REMARK   15  A    between atoms: _47  and  _48
REMARK   16  A    between atoms: _51  and  _53
REMARK   17  A    between atoms: _53  and  _54
REMARK   18  A    between atoms: _53  and  _56
REMARK   19  A    between atoms: _56  and  _57
REMARK   20  A    between atoms: _61  and  _62
REMARK   21  A    between atoms: _67  and  _69
REMARK   22  A    between atoms: _69  and  _70
REMARK   23  A    between atoms: _69  and  _72
REMARK   24  A    between atoms: _75  and  _77
REMARK   25  A    between atoms: _77  and  _78
REMARK   26  A    between atoms: _77  and  _80
REMARK   27  A    between atoms: _80  and  _81
REMARK   28  A    between atoms: _86  and  _88
REMARK   29  A    between atoms: _88  and  _89
REMARK   30  A    between atoms: _88  and  _91
REMARK   31  A    between atoms: _91  and  _92
REMARK   32  A    between atoms: _95  and  _97
REMARK   33  A    between atoms: _97  and  _98
REMARK   34  A    between atoms: _97  and  _100
REMARK   35  A    between atoms: _100  and  _101
REMARK   36  A    between atoms: _101  and  _102
REMARK   37  A    between atoms: _102  and  _103
REMARK   38  A    between atoms: _103  and  _104
REMARK   39  A    between atoms: _108  and  _110
REMARK   40  A    between atoms: _110  and  _111
REMARK   41  A    between atoms: _110  and  _113
REMARK   42  A    between atoms: _113  and  _114
REMARK   43  A    between atoms: _117  and  _119
REMARK   44  A    between atoms: _119  and  _120
REMARK   45  A    between atoms: _119  and  _122
REMARK   46  A    between atoms: _126  and  _127
REMARK   47  A    between atoms: _132  and  _134
REMARK   48  A    between atoms: _134  and  _135
REMARK   49  A    between atoms: _134  and  _137
REMARK   50  A    between atoms: _137  and  _138
REMARK   51  A    between atoms: _143  and  _144
REMARK   52  A    between atoms: _146  and  _148
REMARK   53  A    between atoms: _148  and  _149
REMARK   54  A    between atoms: _148  and  _151
REMARK   55  A    between atoms: _151  and  _152
REMARK   56  A    between atoms: _155  and  _157
REMARK   57  A    between atoms: _157  and  _158
REMARK   58  A    between atoms: _157  and  _160
REMARK   59  A    between atoms: _160  and  _161
REMARK   60  A    between atoms: _161  and  _162
REMARK   61  A    between atoms: _164  and  _166
REMARK   62  A    between atoms: _166  and  _167
REMARK   63  A    between atoms: _166  and  _169
REMARK   64  A    between atoms: _169  and  _170
REMARK   65  A    between atoms: _173  and  _175
REMARK   66  A    between atoms: _175  and  _176
REMARK   67  A    between atoms: _175  and  _178
REMARK   68  A    between atoms: _178  and  _179
REMARK   69  A    between atoms: _185  and  _187
REMARK   70  A    between atoms: _187  and  _188
REMARK   71  A    between atoms: _187  and  _190
REMARK   72  A    between atoms: _190  and  _191
REMARK   73  A    between atoms: _193  and  _195
REMARK   74  A    between atoms: _195  and  _196
REMARK   75  A    between atoms: _195  and  _198
REMARK   76  A    between atoms: _201  and  _203
REMARK   77  A    between atoms: _203  and  _204
REMARK   78  A    between atoms: _203  and  _206
REMARK   79  A    between atoms: _206  and  _207
REMARK   80  A    between atoms: _213  and  _215
REMARK   81  A    between atoms: _215  and  _216
REMARK   82  A    between atoms: _215  and  _218
REMARK   83  A    between atoms: _218  and  _219
REMARK   84  A    between atoms: _224  and  _226
REMARK   85  A    between atoms: _226  and  _227
REMARK   86  A    between atoms: _226  and  _229
REMARK   87  A    between atoms: _231  and  _233
REMARK   88  A    between atoms: _233  and  _234
REMARK   89  A    between atoms: _233  and  _236
REMARK   90  A    between atoms: _236  and  _237
REMARK   91  A    between atoms: _237  and  _238
REMARK   92  A    between atoms: _241  and  _243
REMARK   93  A    between atoms: _243  and  _244
REMARK   94  A    between atoms: _243  and  _246
REMARK   95  A    between atoms: _246  and  _247
REMARK   96  A    between atoms: _250  and  _252
REMARK   97  A    between atoms: _252  and  _253
REMARK   98  A    between atoms: _252  and  _255
REMARK   99  A    between atoms: _255  and  _256
REMARK  100  A    between atoms: _262  and  _264
REMARK  101  A    between atoms: _264  and  _265
REMARK  102  A    between atoms: _264  and  _267
REMARK  103  A    between atoms: _267  and  _268
REMARK  104  A    between atoms: _273  and  _275
REMARK  105  A    between atoms: _275  and  _276
REMARK  106  A    between atoms: _275  and  _278
REMARK  107  A    between atoms: _278  and  _279
REMARK  108  A    between atoms: _282  and  _284
REMARK  109  A    between atoms: _284  and  _285
REMARK  110  A    between atoms: _287  and  _289
REMARK  111  A    between atoms: _289  and  _290
REMARK                            x       y       z     vdW  Elec       q    Type
REMARK                         _______ _______ _______ _____ _____    ______ ____
ROOT
ATOM      1  O   HOH     1      65.505  37.329   5.443  0.00  0.00    +0.000 OA
ENDROOT
TORSDOF 0
REMARK  Name = ../refined-set-2016/4rvr/4rvr_pocket.pdb
REMARK  111 active torsions:
REMARK  status: ('A' for Active; 'I' for Inactive)
REMARK    1  A    between atoms: _1  and  _3
REMARK    2  A    between atoms: _3  and  _4
REMARK    3  A    between atoms: _7  and  _9
REMARK    4  A    between atoms: _9  and  _10
REMARK    5  A    between atoms: _9  and  _12
REMARK    6  A    between atoms: _12  and  _13
REMARK    7  A    between atoms: _24  and  _25
REMARK    8  A    between atoms: _30  and  _32
REMARK    9  A    between atoms: _32  and  _33
REMARK   10  A    between atoms: _32  and  _35
REMARK   11  A    between atoms: _35  and  _36
REMARK   12  A    between atoms: _42  and  _44
REMARK   13  A    between atoms: _44  and  _45
REMARK   14  A    between atoms: _44  and  _47
REMARK   15  A    between atoms: _47  and  _48
REMARK   16  A    between atoms: _51  and  _53
REMARK   17  A    between atoms: _53  and  _54
REMARK   18  A    between atoms: _53  and  _56
REMARK   19  A    between atoms: _56  and  _57
REMARK   20  A    between atoms: _61  and  _62
REMARK   21  A    between atoms: _67  and  _69
REMARK   22  A    between atoms: _69  and  _70
REMARK   23  A    between atoms: _69  and  _72
REMARK   24  A    between atoms: _75  and  _77
REMARK   25  A    between atoms: _77  and  _78
REMARK   26  A    between atoms: _77  and  _80
REMARK   27  A    between atoms: _80  and  _81
REMARK   28  A    between atoms: _86  and  _88
REMARK   29  A    between atoms: _88  and  _89
REMARK   30  A    between atoms: _88  and  _91
REMARK   31  A    between atoms: _91  and  _92
REMARK   32  A    between atoms: _95  and  _97
REMARK   33  A    between atoms: _97  and  _98
REMARK   34  A    between atoms: _97  and  _100
REMARK   35  A    between atoms: _100  and  _101
REMARK   36  A    between atoms: _101  and  _102
REMARK   37  A    between atoms: _102  and  _103
REMARK   38  A    between atoms: _103  and  _104
REMARK   39  A    between atoms: _108  and  _110
REMARK   40  A    between atoms: _110  and  _111
REMARK   41  A    between atoms: _110  and  _113
REMARK   42  A    between atoms: _113  and  _114
REMARK   43  A    between atoms: _117  and  _119
REMARK   44  A    between atoms: _119  and  _120
REMARK   45  A    between atoms: _119  and  _122
REMARK   46  A    between atoms: _126  and  _127
REMARK   47  A    between atoms: _132  and  _134
REMARK   48  A    between atoms: _134  and  _135
REMARK   49  A    between atoms: _134  and  _137
REMARK   50  A    between atoms: _137  and  _138
REMARK   51  A    between atoms: _143  and  _144
REMARK   52  A    between atoms: _146  and  _148
REMARK   53  A    between atoms: _148  and  _149
REMARK   54  A    between atoms: _148  and  _151
REMARK   55  A    between atoms: _151  and  _152
REMARK   56  A    between atoms: _155  and  _157
REMARK   57  A    between atoms: _157  and  _158
REMARK   58  A    between atoms: _157  and  _160
REMARK   59  A    between atoms: _160  and  _161
REMARK   60  A    between atoms: _161  and  _162
REMARK   61  A    between atoms: _164  and  _166
REMARK   62  A    between atoms: _166  and  _167
REMARK   63  A    between atoms: _166  and  _169
REMARK   64  A    between atoms: _169  and  _170
REMARK   65  A    between atoms: _173  and  _175
REMARK   66  A    between atoms: _175  and  _176
REMARK   67  A    between atoms: _175  and  _178
REMARK   68  A    between atoms: _178  and  _179
REMARK   69  A    between atoms: _185  and  _187
REMARK   70  A    between atoms: _187  and  _188
REMARK   71  A    between atoms: _187  and  _190
REMARK   72  A    between atoms: _190  and  _191
REMARK   73  A    between atoms: _193  and  _195
REMARK   74  A    between atoms: _195  and  _196
REMARK   75  A    between atoms: _195  and  _198
REMARK   76  A    between atoms: _201  and  _203
REMARK   77  A    between atoms: _203  and  _204
REMARK   78  A    between atoms: _203  and  _206
REMARK   79  A    between atoms: _206  and  _207
REMARK   80  A    between atoms: _213  and  _215
REMARK   81  A    between atoms: _215  and  _216
REMARK   82  A    between atoms: _215  and  _218
REMARK   83  A    between atoms: _218  and  _219
REMARK   84  A    between atoms: _224  and  _226
REMARK   85  A    between atoms: _226  and  _227
REMARK   86  A    between atoms: _226  and  _229
REMARK   87  A    between atoms: _231  and  _233
REMARK   88  A    between atoms: _233  and  _234
REMARK   89  A    between atoms: _233  and  _236
REMARK   90  A    between atoms: _236  and  _237
REMARK   91  A    between atoms: _237  and  _238
REMARK   92  A    between atoms: _241  and  _243
REMARK   93  A    between atoms: _243  and  _244
REMARK   94  A    between atoms: _243  and  _246
REMARK   95  A    between atoms: _246  and  _247
REMARK   96  A    between atoms: _250  and  _252
REMARK   97  A    between atoms: _252  and  _253
REMARK   98  A    between atoms: _252  and  _255
REMARK   99  A    between atoms: _255  and  _256
REMARK  100  A    between atoms: _262  and  _264
REMARK  101  A    between atoms: _264  and  _265
REMARK  102  A    between atoms: _264  and  _267
REMARK  103  A    between atoms: _267  and  _268
REMARK  104  A    between atoms: _273  and  _275
REMARK  105  A    between atoms: _275  and  _276
REMARK  106  A    between atoms: _275  and  _278
REMARK  107  A    between atoms: _278  and  _279
REMARK  108  A    between atoms: _282  and  _284
REMARK  109  A    between atoms: _284  and  _285
REMARK  110  A    between atoms: _287  and  _289
REMARK  111  A    between atoms: _289  and  _290
REMARK                            x       y       z     vdW  Elec       q    Type
REMARK                         _______ _______ _______ _____ _____    ______ ____
ROOT
ATOM      1  O   HOH     1      64.848  35.473   7.344  0.00  0.00    +0.000 OA
ENDROOT
TORSDOF 0
REMARK  Name = ../refined-set-2016/4rvr/4rvr_pocket.pdb
REMARK  111 active torsions:
REMARK  status: ('A' for Active; 'I' for Inactive)
REMARK    1  A    between atoms: _1  and  _3
REMARK    2  A    between atoms: _3  and  _4
REMARK    3  A    between atoms: _7  and  _9
REMARK    4  A    between atoms: _9  and  _10
REMARK    5  A    between atoms: _9  and  _12
REMARK    6  A    between atoms: _12  and  _13
REMARK    7  A    between atoms: _24  and  _25
REMARK    8  A    between atoms: _30  and  _32
REMARK    9  A    between atoms: _32  and  _33
REMARK   10  A    between atoms: _32  and  _35
REMARK   11  A    between atoms: _35  and  _36
REMARK   12  A    between atoms: _42  and  _44
REMARK   13  A    between atoms: _44  and  _45
REMARK   14  A    between atoms: _44  and  _47
REMARK   15  A    between atoms: _47  and  _48
REMARK   16  A    between atoms: _51  and  _53
REMARK   17  A    between atoms: _53  and  _54
REMARK   18  A    between atoms: _53  and  _56
REMARK   19  A    between atoms: _56  and  _57
REMARK   20  A    between atoms: _61  and  _62
REMARK   21  A    between atoms: _67  and  _69
REMARK   22  A    between atoms: _69  and  _70
REMARK   23  A    between atoms: _69  and  _72
REMARK   24  A    between atoms: _75  and  _77
REMARK   25  A    between atoms: _77  and  _78
REMARK   26  A    between atoms: _77  and  _80
REMARK   27  A    between atoms: _80  and  _81
REMARK   28  A    between atoms: _86  and  _88
REMARK   29  A    between atoms: _88  and  _89
REMARK   30  A    between atoms: _88  and  _91
REMARK   31  A    between atoms: _91  and  _92
REMARK   32  A    between atoms: _95  and  _97
REMARK   33  A    between atoms: _97  and  _98
REMARK   34  A    between atoms: _97  and  _100
REMARK   35  A    between atoms: _100  and  _101
REMARK   36  A    between atoms: _101  and  _102
REMARK   37  A    between atoms: _102  and  _103
REMARK   38  A    between atoms: _103  and  _104
REMARK   39  A    between atoms: _108  and  _110
REMARK   40  A    between atoms: _110  and  _111
REMARK   41  A    between atoms: _110  and  _113
REMARK   42  A    between atoms: _113  and  _114
REMARK   43  A    between atoms: _117  and  _119
REMARK   44  A    between atoms: _119  and  _120
REMARK   45  A    between atoms: _119  and  _122
REMARK   46  A    between atoms: _126  and  _127
REMARK   47  A    between atoms: _132  and  _134
REMARK   48  A    between atoms: _134  and  _135
REMARK   49  A    between atoms: _134  and  _137
REMARK   50  A    between atoms: _137  and  _138
REMARK   51  A    between atoms: _143  and  _144
REMARK   52  A    between atoms: _146  and  _148
REMARK   53  A    between atoms: _148  and  _149
REMARK   54  A    between atoms: _148  and  _151
REMARK   55  A    between atoms: _151  and  _152
REMARK   56  A    between atoms: _155  and  _157
REMARK   57  A    between atoms: _157  and  _158
REMARK   58  A    between atoms: _157  and  _160
REMARK   59  A    between atoms: _160  and  _161
REMARK   60  A    between atoms: _161  and  _162
REMARK   61  A    between atoms: _164  and  _166
REMARK   62  A    between atoms: _166  and  _167
REMARK   63  A    between atoms: _166  and  _169
REMARK   64  A    between atoms: _169  and  _170
REMARK   65  A    between atoms: _173  and  _175
REMARK   66  A    between atoms: _175  and  _176
REMARK   67  A    between atoms: _175  and  _178
REMARK   68  A    between atoms: _178  and  _179
REMARK   69  A    between atoms: _185  and  _187
REMARK   70  A    between atoms: _187  and  _188
REMARK   71  A    between atoms: _187  and  _190
REMARK   72  A    between atoms: _190  and  _191
REMARK   73  A    between atoms: _193  and  _195
REMARK   74  A    between atoms: _195  and  _196
REMARK   75  A    between atoms: _195  and  _198
REMARK   76  A    between atoms: _201  and  _203
REMARK   77  A    between atoms: _203  and  _204
REMARK   78  A    between atoms: _203  and  _206
REMARK   79  A    between atoms: _206  and  _207
REMARK   80  A    between atoms: _213  and  _215
REMARK   81  A    between atoms: _215  and  _216
REMARK   82  A    between atoms: _215  and  _218
REMARK   83  A    between atoms: _218  and  _219
REMARK   84  A    between atoms: _224  and  _226
REMARK   85  A    between atoms: _226  and  _227
REMARK   86  A    between atoms: _226  and  _229
REMARK   87  A    between atoms: _231  and  _233
REMARK   88  A    between atoms: _233  and  _234
REMARK   89  A    between atoms: _233  and  _236
REMARK   90  A    between atoms: _236  and  _237
REMARK   91  A    between atoms: _237  and  _238
REMARK   92  A    between atoms: _241  and  _243
REMARK   93  A    between atoms: _243  and  _244
REMARK   94  A    between atoms: _243  and  _246
REMARK   95  A    between atoms: _246  and  _247
REMARK   96  A    between atoms: _250  and  _252
REMARK   97  A    between atoms: _252  and  _253
REMARK   98  A    between atoms: _252  and  _255
REMARK   99  A    between atoms: _255  and  _256
REMARK  100  A    between atoms: _262  and  _264
REMARK  101  A    between atoms: _264  and  _265
REMARK  102  A    between atoms: _264  and  _267
REMARK  103  A    between atoms: _267  and  _268
REMARK  104  A    between atoms: _273  and  _275
REMARK  105  A    between atoms: _275  and  _276
REMARK  106  A    between atoms: _275  and  _278
REMARK  107  A    between atoms: _278  and  _279
REMARK  108  A    between atoms: _282  and  _284
REMARK  109  A    between atoms: _284  and  _285
REMARK  110  A    between atoms: _287  and  _289
REMARK  111  A    between atoms: _289  and  _290
REMARK                            x       y       z     vdW  Elec       q    Type
REMARK                         _______ _______ _______ _____ _____    ______ ____
ROOT
ATOM      1  O   HOH     1      63.214  37.600   3.597  0.00  0.00    +0.000 OA
ENDROOT
TORSDOF 0
REMARK  Name = ../refined-set-2016/4rvr/4rvr_pocket.pdb
REMARK  111 active torsions:
REMARK  status: ('A' for Active; 'I' for Inactive)
REMARK    1  A    between atoms: _1  and  _3
REMARK    2  A    between atoms: _3  and  _4
REMARK    3  A    between atoms: _7  and  _9
REMARK    4  A    between atoms: _9  and  _10
REMARK    5  A    between atoms: _9  and  _12
REMARK    6  A    between atoms: _12  and  _13
REMARK    7  A    between atoms: _24  and  _25
REMARK    8  A    between atoms: _30  and  _32
REMARK    9  A    between atoms: _32  and  _33
REMARK   10  A    between atoms: _32  and  _35
REMARK   11  A    between atoms: _35  and  _36
REMARK   12  A    between atoms: _42  and  _44
REMARK   13  A    between atoms: _44  and  _45
REMARK   14  A    between atoms: _44  and  _47
REMARK   15  A    between atoms: _47  and  _48
REMARK   16  A    between atoms: _51  and  _53
REMARK   17  A    between atoms: _53  and  _54
REMARK   18  A    between atoms: _53  and  _56
REMARK   19  A    between atoms: _56  and  _57
REMARK   20  A    between atoms: _61  and  _62
REMARK   21  A    between atoms: _67  and  _69
REMARK   22  A    between atoms: _69  and  _70
REMARK   23  A    between atoms: _69  and  _72
REMARK   24  A    between atoms: _75  and  _77
REMARK   25  A    between atoms: _77  and  _78
REMARK   26  A    between atoms: _77  and  _80
REMARK   27  A    between atoms: _80  and  _81
REMARK   28  A    between atoms: _86  and  _88
REMARK   29  A    between atoms: _88  and  _89
REMARK   30  A    between atoms: _88  and  _91
REMARK   31  A    between atoms: _91  and  _92
REMARK   32  A    between atoms: _95  and  _97
REMARK   33  A    between atoms: _97  and  _98
REMARK   34  A    between atoms: _97  and  _100
REMARK   35  A    between atoms: _100  and  _101
REMARK   36  A    between atoms: _101  and  _102
REMARK   37  A    between atoms: _102  and  _103
REMARK   38  A    between atoms: _103  and  _104
REMARK   39  A    between atoms: _108  and  _110
REMARK   40  A    between atoms: _110  and  _111
REMARK   41  A    between atoms: _110  and  _113
REMARK   42  A    between atoms: _113  and  _114
REMARK   43  A    between atoms: _117  and  _119
REMARK   44  A    between atoms: _119  and  _120
REMARK   45  A    between atoms: _119  and  _122
REMARK   46  A    between atoms: _126  and  _127
REMARK   47  A    between atoms: _132  and  _134
REMARK   48  A    between atoms: _134  and  _135
REMARK   49  A    between atoms: _134  and  _137
REMARK   50  A    between atoms: _137  and  _138
REMARK   51  A    between atoms: _143  and  _144
REMARK   52  A    between atoms: _146  and  _148
REMARK   53  A    between atoms: _148  and  _149
REMARK   54  A    between atoms: _148  and  _151
REMARK   55  A    between atoms: _151  and  _152
REMARK   56  A    between atoms: _155  and  _157
REMARK   57  A    between atoms: _157  and  _158
REMARK   58  A    between atoms: _157  and  _160
REMARK   59  A    between atoms: _160  and  _161
REMARK   60  A    between atoms: _161  and  _162
REMARK   61  A    between atoms: _164  and  _166
REMARK   62  A    between atoms: _166  and  _167
REMARK   63  A    between atoms: _166  and  _169
REMARK   64  A    between atoms: _169  and  _170
REMARK   65  A    between atoms: _173  and  _175
REMARK   66  A    between atoms: _175  and  _176
REMARK   67  A    between atoms: _175  and  _178
REMARK   68  A    between atoms: _178  and  _179
REMARK   69  A    between atoms: _185  and  _187
REMARK   70  A    between atoms: _187  and  _188
REMARK   71  A    between atoms: _187  and  _190
REMARK   72  A    between atoms: _190  and  _191
REMARK   73  A    between atoms: _193  and  _195
REMARK   74  A    between atoms: _195  and  _196
REMARK   75  A    between atoms: _195  and  _198
REMARK   76  A    between atoms: _201  and  _203
REMARK   77  A    between atoms: _203  and  _204
REMARK   78  A    between atoms: _203  and  _206
REMARK   79  A    between atoms: _206  and  _207
REMARK   80  A    between atoms: _213  and  _215
REMARK   81  A    between atoms: _215  and  _216
REMARK   82  A    between atoms: _215  and  _218
REMARK   83  A    between atoms: _218  and  _219
REMARK   84  A    between atoms: _224  and  _226
REMARK   85  A    between atoms: _226  and  _227
REMARK   86  A    between atoms: _226  and  _229
REMARK   87  A    between atoms: _231  and  _233
REMARK   88  A    between atoms: _233  and  _234
REMARK   89  A    between atoms: _233  and  _236
REMARK   90  A    between atoms: _236  and  _237
REMARK   91  A    between atoms: _237  and  _238
REMARK   92  A    between atoms: _241  and  _243
REMARK   93  A    between atoms: _243  and  _244
REMARK   94  A    between atoms: _243  and  _246
REMARK   95  A    between atoms: _246  and  _247
REMARK   96  A    between atoms: _250  and  _252
REMARK   97  A    between atoms: _252  and  _253
REMARK   98  A    between atoms: _252  and  _255
REMARK   99  A    between atoms: _255  and  _256
REMARK  100  A    between atoms: _262  and  _264
REMARK  101  A    between atoms: _264  and  _265
REMARK  102  A    between atoms: _264  and  _267
REMARK  103  A    between atoms: _267  and  _268
REMARK  104  A    between atoms: _273  and  _275
REMARK  105  A    between atoms: _275  and  _276
REMARK  106  A    between atoms: _275  and  _278
REMARK  107  A    between atoms: _278  and  _279
REMARK  108  A    between atoms: _282  and  _284
REMARK  109  A    between atoms: _284  and  _285
REMARK  110  A    between atoms: _287  and  _289
REMARK  111  A    between atoms: _289  and  _290
REMARK                            x       y       z     vdW  Elec       q    Type
REMARK                         _______ _______ _______ _____ _____    ______ ____
ROOT
ATOM      1  O   HOH     1      64.952  35.365   2.001  0.00  0.00    +0.000 OA
ENDROOT
TORSDOF 0
REMARK  Name = ../refined-set-2016/4rvr/4rvr_pocket.pdb
REMARK  111 active torsions:
REMARK  status: ('A' for Active; 'I' for Inactive)
REMARK    1  A    between atoms: _1  and  _3
REMARK    2  A    between atoms: _3  and  _4
REMARK    3  A    between atoms: _7  and  _9
REMARK    4  A    between atoms: _9  and  _10
REMARK    5  A    between atoms: _9  and  _12
REMARK    6  A    between atoms: _12  and  _13
REMARK    7  A    between atoms: _24  and  _25
REMARK    8  A    between atoms: _30  and  _32
REMARK    9  A    between atoms: _32  and  _33
REMARK   10  A    between atoms: _32  and  _35
REMARK   11  A    between atoms: _35  and  _36
REMARK   12  A    between atoms: _42  and  _44
REMARK   13  A    between atoms: _44  and  _45
REMARK   14  A    between atoms: _44  and  _47
REMARK   15  A    between atoms: _47  and  _48
REMARK   16  A    between atoms: _51  and  _53
REMARK   17  A    between atoms: _53  and  _54
REMARK   18  A    between atoms: _53  and  _56
REMARK   19  A    between atoms: _56  and  _57
REMARK   20  A    between atoms: _61  and  _62
REMARK   21  A    between atoms: _67  and  _69
REMARK   22  A    between atoms: _69  and  _70
REMARK   23  A    between atoms: _69  and  _72
REMARK   24  A    between atoms: _75  and  _77
REMARK   25  A    between atoms: _77  and  _78
REMARK   26  A    between atoms: _77  and  _80
REMARK   27  A    between atoms: _80  and  _81
REMARK   28  A    between atoms: _86  and  _88
REMARK   29  A    between atoms: _88  and  _89
REMARK   30  A    between atoms: _88  and  _91
REMARK   31  A    between atoms: _91  and  _92
REMARK   32  A    between atoms: _95  and  _97
REMARK   33  A    between atoms: _97  and  _98
REMARK   34  A    between atoms: _97  and  _100
REMARK   35  A    between atoms: _100  and  _101
REMARK   36  A    between atoms: _101  and  _102
REMARK   37  A    between atoms: _102  and  _103
REMARK   38  A    between atoms: _103  and  _104
REMARK   39  A    between atoms: _108  and  _110
REMARK   40  A    between atoms: _110  and  _111
REMARK   41  A    between atoms: _110  and  _113
REMARK   42  A    between atoms: _113  and  _114
REMARK   43  A    between atoms: _117  and  _119
REMARK   44  A    between atoms: _119  and  _120
REMARK   45  A    between atoms: _119  and  _122
REMARK   46  A    between atoms: _126  and  _127
REMARK   47  A    between atoms: _132  and  _134
REMARK   48  A    between atoms: _134  and  _135
REMARK   49  A    between atoms: _134  and  _137
REMARK   50  A    between atoms: _137  and  _138
REMARK   51  A    between atoms: _143  and  _144
REMARK   52  A    between atoms: _146  and  _148
REMARK   53  A    between atoms: _148  and  _149
REMARK   54  A    between atoms: _148  and  _151
REMARK   55  A    between atoms: _151  and  _152
REMARK   56  A    between atoms: _155  and  _157
REMARK   57  A    between atoms: _157  and  _158
REMARK   58  A    between atoms: _157  and  _160
REMARK   59  A    between atoms: _160  and  _161
REMARK   60  A    between atoms: _161  and  _162
REMARK   61  A    between atoms: _164  and  _166
REMARK   62  A    between atoms: _166  and  _167
REMARK   63  A    between atoms: _166  and  _169
REMARK   64  A    between atoms: _169  and  _170
REMARK   65  A    between atoms: _173  and  _175
REMARK   66  A    between atoms: _175  and  _176
REMARK   67  A    between atoms: _175  and  _178
REMARK   68  A    between atoms: _178  and  _179
REMARK   69  A    between atoms: _185  and  _187
REMARK   70  A    between atoms: _187  and  _188
REMARK   71  A    between atoms: _187  and  _190
REMARK   72  A    between atoms: _190  and  _191
REMARK   73  A    between atoms: _193  and  _195
REMARK   74  A    between atoms: _195  and  _196
REMARK   75  A    between atoms: _195  and  _198
REMARK   76  A    between atoms: _201  and  _203
REMARK   77  A    between atoms: _203  and  _204
REMARK   78  A    between atoms: _203  and  _206
REMARK   79  A    between atoms: _206  and  _207
REMARK   80  A    between atoms: _213  and  _215
REMARK   81  A    between atoms: _215  and  _216
REMARK   82  A    between atoms: _215  and  _218
REMARK   83  A    between atoms: _218  and  _219
REMARK   84  A    between atoms: _224  and  _226
REMARK   85  A    between atoms: _226  and  _227
REMARK   86  A    between atoms: _226  and  _229
REMARK   87  A    between atoms: _231  and  _233
REMARK   88  A    between atoms: _233  and  _234
REMARK   89  A    between atoms: _233  and  _236
REMARK   90  A    between atoms: _236  and  _237
REMARK   91  A    between atoms: _237  and  _238
REMARK   92  A    between atoms: _241  and  _243
REMARK   93  A    between atoms: _243  and  _244
REMARK   94  A    between atoms: _243  and  _246
REMARK   95  A    between atoms: _246  and  _247
REMARK   96  A    between atoms: _250  and  _252
REMARK   97  A    between atoms: _252  and  _253
REMARK   98  A    between atoms: _252  and  _255
REMARK   99  A    between atoms: _255  and  _256
REMARK  100  A    between atoms: _262  and  _264
REMARK  101  A    between atoms: _264  and  _265
REMARK  102  A    between atoms: _264  and  _267
REMARK  103  A    between atoms: _267  and  _268
REMARK  104  A    between atoms: _273  and  _275
REMARK  105  A    between atoms: _275  and  _276
REMARK  106  A    between atoms: _275  and  _278
REMARK  107  A    between atoms: _278  and  _279
REMARK  108  A    between atoms: _282  and  _284
REMARK  109  A    between atoms: _284  and  _285
REMARK  110  A    between atoms: _287  and  _289
REMARK  111  A    between atoms: _289  and  _290
REMARK                            x       y       z     vdW  Elec       q    Type
REMARK                         _______ _______ _______ _____ _____    ______ ____
ROOT
ATOM      1  O   HOH     1      74.411  32.612   2.066  0.00  0.00    +0.000 OA
ENDROOT
TORSDOF 0
REMARK  Name = ../refined-set-2016/4rvr/4rvr_pocket.pdb
REMARK  111 active torsions:
REMARK  status: ('A' for Active; 'I' for Inactive)
REMARK    1  A    between atoms: _1  and  _3
REMARK    2  A    between atoms: _3  and  _4
REMARK    3  A    between atoms: _7  and  _9
REMARK    4  A    between atoms: _9  and  _10
REMARK    5  A    between atoms: _9  and  _12
REMARK    6  A    between atoms: _12  and  _13
REMARK    7  A    between atoms: _24  and  _25
REMARK    8  A    between atoms: _30  and  _32
REMARK    9  A    between atoms: _32  and  _33
REMARK   10  A    between atoms: _32  and  _35
REMARK   11  A    between atoms: _35  and  _36
REMARK   12  A    between atoms: _42  and  _44
REMARK   13  A    between atoms: _44  and  _45
REMARK   14  A    between atoms: _44  and  _47
REMARK   15  A    between atoms: _47  and  _48
REMARK   16  A    between atoms: _51  and  _53
REMARK   17  A    between atoms: _53  and  _54
REMARK   18  A    between atoms: _53  and  _56
REMARK   19  A    between atoms: _56  and  _57
REMARK   20  A    between atoms: _61  and  _62
REMARK   21  A    between atoms: _67  and  _69
REMARK   22  A    between atoms: _69  and  _70
REMARK   23  A    between atoms: _69  and  _72
REMARK   24  A    between atoms: _75  and  _77
REMARK   25  A    between atoms: _77  and  _78
REMARK   26  A    between atoms: _77  and  _80
REMARK   27  A    between atoms: _80  and  _81
REMARK   28  A    between atoms: _86  and  _88
REMARK   29  A    between atoms: _88  and  _89
REMARK   30  A    between atoms: _88  and  _91
REMARK   31  A    between atoms: _91  and  _92
REMARK   32  A    between atoms: _95  and  _97
REMARK   33  A    between atoms: _97  and  _98
REMARK   34  A    between atoms: _97  and  _100
REMARK   35  A    between atoms: _100  and  _101
REMARK   36  A    between atoms: _101  and  _102
REMARK   37  A    between atoms: _102  and  _103
REMARK   38  A    between atoms: _103  and  _104
REMARK   39  A    between atoms: _108  and  _110
REMARK   40  A    between atoms: _110  and  _111
REMARK   41  A    between atoms: _110  and  _113
REMARK   42  A    between atoms: _113  and  _114
REMARK   43  A    between atoms: _117  and  _119
REMARK   44  A    between atoms: _119  and  _120
REMARK   45  A    between atoms: _119  and  _122
REMARK   46  A    between atoms: _126  and  _127
REMARK   47  A    between atoms: _132  and  _134
REMARK   48  A    between atoms: _134  and  _135
REMARK   49  A    between atoms: _134  and  _137
REMARK   50  A    between atoms: _137  and  _138
REMARK   51  A    between atoms: _143  and  _144
REMARK   52  A    between atoms: _146  and  _148
REMARK   53  A    between atoms: _148  and  _149
REMARK   54  A    between atoms: _148  and  _151
REMARK   55  A    between atoms: _151  and  _152
REMARK   56  A    between atoms: _155  and  _157
REMARK   57  A    between atoms: _157  and  _158
REMARK   58  A    between atoms: _157  and  _160
REMARK   59  A    between atoms: _160  and  _161
REMARK   60  A    between atoms: _161  and  _162
REMARK   61  A    between atoms: _164  and  _166
REMARK   62  A    between atoms: _166  and  _167
REMARK   63  A    between atoms: _166  and  _169
REMARK   64  A    between atoms: _169  and  _170
REMARK   65  A    between atoms: _173  and  _175
REMARK   66  A    between atoms: _175  and  _176
REMARK   67  A    between atoms: _175  and  _178
REMARK   68  A    between atoms: _178  and  _179
REMARK   69  A    between atoms: _185  and  _187
REMARK   70  A    between atoms: _187  and  _188
REMARK   71  A    between atoms: _187  and  _190
REMARK   72  A    between atoms: _190  and  _191
REMARK   73  A    between atoms: _193  and  _195
REMARK   74  A    between atoms: _195  and  _196
REMARK   75  A    between atoms: _195  and  _198
REMARK   76  A    between atoms: _201  and  _203
REMARK   77  A    between atoms: _203  and  _204
REMARK   78  A    between atoms: _203  and  _206
REMARK   79  A    between atoms: _206  and  _207
REMARK   80  A    between atoms: _213  and  _215
REMARK   81  A    between atoms: _215  and  _216
REMARK   82  A    between atoms: _215  and  _218
REMARK   83  A    between atoms: _218  and  _219
REMARK   84  A    between atoms: _224  and  _226
REMARK   85  A    between atoms: _226  and  _227
REMARK   86  A    between atoms: _226  and  _229
REMARK   87  A    between atoms: _231  and  _233
REMARK   88  A    between atoms: _233  and  _234
REMARK   89  A    between atoms: _233  and  _236
REMARK   90  A    between atoms: _236  and  _237
REMARK   91  A    between atoms: _237  and  _238
REMARK   92  A    between atoms: _241  and  _243
REMARK   93  A    between atoms: _243  and  _244
REMARK   94  A    between atoms: _243  and  _246
REMARK   95  A    between atoms: _246  and  _247
REMARK   96  A    between atoms: _250  and  _252
REMARK   97  A    between atoms: _252  and  _253
REMARK   98  A    between atoms: _252  and  _255
REMARK   99  A    between atoms: _255  and  _256
REMARK  100  A    between atoms: _262  and  _264
REMARK  101  A    between atoms: _264  and  _265
REMARK  102  A    between atoms: _264  and  _267
REMARK  103  A    between atoms: _267  and  _268
REMARK  104  A    between atoms: _273  and  _275
REMARK  105  A    between atoms: _275  and  _276
REMARK  106  A    between atoms: _275  and  _278
REMARK  107  A    between atoms: _278  and  _279
REMARK  108  A    between atoms: _282  and  _284
REMARK  109  A    between atoms: _284  and  _285
REMARK  110  A    between atoms: _287  and  _289
REMARK  111  A    between atoms: _289  and  _290
REMARK                            x       y       z     vdW  Elec       q    Type
REMARK                         _______ _______ _______ _____ _____    ______ ____
ROOT
ATOM      1  O   HOH     1      63.983  39.231  -0.194  0.00  0.00    +0.000 OA
ENDROOT
TORSDOF 0
REMARK  Name = ../refined-set-2016/4rvr/4rvr_pocket.pdb
REMARK  111 active torsions:
REMARK  status: ('A' for Active; 'I' for Inactive)
REMARK    1  A    between atoms: _1  and  _3
REMARK    2  A    between atoms: _3  and  _4
REMARK    3  A    between atoms: _7  and  _9
REMARK    4  A    between atoms: _9  and  _10
REMARK    5  A    between atoms: _9  and  _12
REMARK    6  A    between atoms: _12  and  _13
REMARK    7  A    between atoms: _24  and  _25
REMARK    8  A    between atoms: _30  and  _32
REMARK    9  A    between atoms: _32  and  _33
REMARK   10  A    between atoms: _32  and  _35
REMARK   11  A    between atoms: _35  and  _36
REMARK   12  A    between atoms: _42  and  _44
REMARK   13  A    between atoms: _44  and  _45
REMARK   14  A    between atoms: _44  and  _47
REMARK   15  A    between atoms: _47  and  _48
REMARK   16  A    between atoms: _51  and  _53
REMARK   17  A    between atoms: _53  and  _54
REMARK   18  A    between atoms: _53  and  _56
REMARK   19  A    between atoms: _56  and  _57
REMARK   20  A    between atoms: _61  and  _62
REMARK   21  A    between atoms: _67  and  _69
REMARK   22  A    between atoms: _69  and  _70
REMARK   23  A    between atoms: _69  and  _72
REMARK   24  A    between atoms: _75  and  _77
REMARK   25  A    between atoms: _77  and  _78
REMARK   26  A    between atoms: _77  and  _80
REMARK   27  A    between atoms: _80  and  _81
REMARK   28  A    between atoms: _86  and  _88
REMARK   29  A    between atoms: _88  and  _89
REMARK   30  A    between atoms: _88  and  _91
REMARK   31  A    between atoms: _91  and  _92
REMARK   32  A    between atoms: _95  and  _97
REMARK   33  A    between atoms: _97  and  _98
REMARK   34  A    between atoms: _97  and  _100
REMARK   35  A    between atoms: _100  and  _101
REMARK   36  A    between atoms: _101  and  _102
REMARK   37  A    between atoms: _102  and  _103
REMARK   38  A    between atoms: _103  and  _104
REMARK   39  A    between atoms: _108  and  _110
REMARK   40  A    between atoms: _110  and  _111
REMARK   41  A    between atoms: _110  and  _113
REMARK   42  A    between atoms: _113  and  _114
REMARK   43  A    between atoms: _117  and  _119
REMARK   44  A    between atoms: _119  and  _120
REMARK   45  A    between atoms: _119  and  _122
REMARK   46  A    between atoms: _126  and  _127
REMARK   47  A    between atoms: _132  and  _134
REMARK   48  A    between atoms: _134  and  _135
REMARK   49  A    between atoms: _134  and  _137
REMARK   50  A    between atoms: _137  and  _138
REMARK   51  A    between atoms: _143  and  _144
REMARK   52  A    between atoms: _146  and  _148
REMARK   53  A    between atoms: _148  and  _149
REMARK   54  A    between atoms: _148  and  _151
REMARK   55  A    between atoms: _151  and  _152
REMARK   56  A    between atoms: _155  and  _157
REMARK   57  A    between atoms: _157  and  _158
REMARK   58  A    between atoms: _157  and  _160
REMARK   59  A    between atoms: _160  and  _161
REMARK   60  A    between atoms: _161  and  _162
REMARK   61  A    between atoms: _164  and  _166
REMARK   62  A    between atoms: _166  and  _167
REMARK   63  A    between atoms: _166  and  _169
REMARK   64  A    between atoms: _169  and  _170
REMARK   65  A    between atoms: _173  and  _175
REMARK   66  A    between atoms: _175  and  _176
REMARK   67  A    between atoms: _175  and  _178
REMARK   68  A    between atoms: _178  and  _179
REMARK   69  A    between atoms: _185  and  _187
REMARK   70  A    between atoms: _187  and  _188
REMARK   71  A    between atoms: _187  and  _190
REMARK   72  A    between atoms: _190  and  _191
REMARK   73  A    between atoms: _193  and  _195
REMARK   74  A    between atoms: _195  and  _196
REMARK   75  A    between atoms: _195  and  _198
REMARK   76  A    between atoms: _201  and  _203
REMARK   77  A    between atoms: _203  and  _204
REMARK   78  A    between atoms: _203  and  _206
REMARK   79  A    between atoms: _206  and  _207
REMARK   80  A    between atoms: _213  and  _215
REMARK   81  A    between atoms: _215  and  _216
REMARK   82  A    between atoms: _215  and  _218
REMARK   83  A    between atoms: _218  and  _219
REMARK   84  A    between atoms: _224  and  _226
REMARK   85  A    between atoms: _226  and  _227
REMARK   86  A    between atoms: _226  and  _229
REMARK   87  A    between atoms: _231  and  _233
REMARK   88  A    between atoms: _233  and  _234
REMARK   89  A    between atoms: _233  and  _236
REMARK   90  A    between atoms: _236  and  _237
REMARK   91  A    between atoms: _237  and  _238
REMARK   92  A    between atoms: _241  and  _243
REMARK   93  A    between atoms: _243  and  _244
REMARK   94  A    between atoms: _243  and  _246
REMARK   95  A    between atoms: _246  and  _247
REMARK   96  A    between atoms: _250  and  _252
REMARK   97  A    between atoms: _252  and  _253
REMARK   98  A    between atoms: _252  and  _255
REMARK   99  A    between atoms: _255  and  _256
REMARK  100  A    between atoms: _262  and  _264
REMARK  101  A    between atoms: _264  and  _265
REMARK  102  A    between atoms: _264  and  _267
REMARK  103  A    between atoms: _267  and  _268
REMARK  104  A    between atoms: _273  and  _275
REMARK  105  A    between atoms: _275  and  _276
REMARK  106  A    between atoms: _275  and  _278
REMARK  107  A    between atoms: _278  and  _279
REMARK  108  A    between atoms: _282  and  _284
REMARK  109  A    between atoms: _284  and  _285
REMARK  110  A    between atoms: _287  and  _289
REMARK  111  A    between atoms: _289  and  _290
REMARK                            x       y       z     vdW  Elec       q    Type
REMARK                         _______ _______ _______ _____ _____    ______ ____
ROOT
ATOM      1  O   HOH     1      76.007  34.827   2.981  0.00  0.00    +0.000 OA
ENDROOT
TORSDOF 0
REMARK  Name = ../refined-set-2016/4rvr/4rvr_pocket.pdb
REMARK  111 active torsions:
REMARK  status: ('A' for Active; 'I' for Inactive)
REMARK    1  A    between atoms: _1  and  _3
REMARK    2  A    between atoms: _3  and  _4
REMARK    3  A    between atoms: _7  and  _9
REMARK    4  A    between atoms: _9  and  _10
REMARK    5  A    between atoms: _9  and  _12
REMARK    6  A    between atoms: _12  and  _13
REMARK    7  A    between atoms: _24  and  _25
REMARK    8  A    between atoms: _30  and  _32
REMARK    9  A    between atoms: _32  and  _33
REMARK   10  A    between atoms: _32  and  _35
REMARK   11  A    between atoms: _35  and  _36
REMARK   12  A    between atoms: _42  and  _44
REMARK   13  A    between atoms: _44  and  _45
REMARK   14  A    between atoms: _44  and  _47
REMARK   15  A    between atoms: _47  and  _48
REMARK   16  A    between atoms: _51  and  _53
REMARK   17  A    between atoms: _53  and  _54
REMARK   18  A    between atoms: _53  and  _56
REMARK   19  A    between atoms: _56  and  _57
REMARK   20  A    between atoms: _61  and  _62
REMARK   21  A    between atoms: _67  and  _69
REMARK   22  A    between atoms: _69  and  _70
REMARK   23  A    between atoms: _69  and  _72
REMARK   24  A    between atoms: _75  and  _77
REMARK   25  A    between atoms: _77  and  _78
REMARK   26  A    between atoms: _77  and  _80
REMARK   27  A    between atoms: _80  and  _81
REMARK   28  A    between atoms: _86  and  _88
REMARK   29  A    between atoms: _88  and  _89
REMARK   30  A    between atoms: _88  and  _91
REMARK   31  A    between atoms: _91  and  _92
REMARK   32  A    between atoms: _95  and  _97
REMARK   33  A    between atoms: _97  and  _98
REMARK   34  A    between atoms: _97  and  _100
REMARK   35  A    between atoms: _100  and  _101
REMARK   36  A    between atoms: _101  and  _102
REMARK   37  A    between atoms: _102  and  _103
REMARK   38  A    between atoms: _103  and  _104
REMARK   39  A    between atoms: _108  and  _110
REMARK   40  A    between atoms: _110  and  _111
REMARK   41  A    between atoms: _110  and  _113
REMARK   42  A    between atoms: _113  and  _114
REMARK   43  A    between atoms: _117  and  _119
REMARK   44  A    between atoms: _119  and  _120
REMARK   45  A    between atoms: _119  and  _122
REMARK   46  A    between atoms: _126  and  _127
REMARK   47  A    between atoms: _132  and  _134
REMARK   48  A    between atoms: _134  and  _135
REMARK   49  A    between atoms: _134  and  _137
REMARK   50  A    between atoms: _137  and  _138
REMARK   51  A    between atoms: _143  and  _144
REMARK   52  A    between atoms: _146  and  _148
REMARK   53  A    between atoms: _148  and  _149
REMARK   54  A    between atoms: _148  and  _151
REMARK   55  A    between atoms: _151  and  _152
REMARK   56  A    between atoms: _155  and  _157
REMARK   57  A    between atoms: _157  and  _158
REMARK   58  A    between atoms: _157  and  _160
REMARK   59  A    between atoms: _160  and  _161
REMARK   60  A    between atoms: _161  and  _162
REMARK   61  A    between atoms: _164  and  _166
REMARK   62  A    between atoms: _166  and  _167
REMARK   63  A    between atoms: _166  and  _169
REMARK   64  A    between atoms: _169  and  _170
REMARK   65  A    between atoms: _173  and  _175
REMARK   66  A    between atoms: _175  and  _176
REMARK   67  A    between atoms: _175  and  _178
REMARK   68  A    between atoms: _178  and  _179
REMARK   69  A    between atoms: _185  and  _187
REMARK   70  A    between atoms: _187  and  _188
REMARK   71  A    between atoms: _187  and  _190
REMARK   72  A    between atoms: _190  and  _191
REMARK   73  A    between atoms: _193  and  _195
REMARK   74  A    between atoms: _195  and  _196
REMARK   75  A    between atoms: _195  and  _198
REMARK   76  A    between atoms: _201  and  _203
REMARK   77  A    between atoms: _203  and  _204
REMARK   78  A    between atoms: _203  and  _206
REMARK   79  A    between atoms: _206  and  _207
REMARK   80  A    between atoms: _213  and  _215
REMARK   81  A    between atoms: _215  and  _216
REMARK   82  A    between atoms: _215  and  _218
REMARK   83  A    between atoms: _218  and  _219
REMARK   84  A    between atoms: _224  and  _226
REMARK   85  A    between atoms: _226  and  _227
REMARK   86  A    between atoms: _226  and  _229
REMARK   87  A    between atoms: _231  and  _233
REMARK   88  A    between atoms: _233  and  _234
REMARK   89  A    between atoms: _233  and  _236
REMARK   90  A    between atoms: _236  and  _237
REMARK   91  A    between atoms: _237  and  _238
REMARK   92  A    between atoms: _241  and  _243
REMARK   93  A    between atoms: _243  and  _244
REMARK   94  A    between atoms: _243  and  _246
REMARK   95  A    between atoms: _246  and  _247
REMARK   96  A    between atoms: _250  and  _252
REMARK   97  A    between atoms: _252  and  _253
REMARK   98  A    between atoms: _252  and  _255
REMARK   99  A    between atoms: _255  and  _256
REMARK  100  A    between atoms: _262  and  _264
REMARK  101  A    between atoms: _264  and  _265
REMARK  102  A    between atoms: _264  and  _267
REMARK  103  A    between atoms: _267  and  _268
REMARK  104  A    between atoms: _273  and  _275
REMARK  105  A    between atoms: _275  and  _276
REMARK  106  A    between atoms: _275  and  _278
REMARK  107  A    between atoms: _278  and  _279
REMARK  108  A    between atoms: _282  and  _284
REMARK  109  A    between atoms: _284  and  _285
REMARK  110  A    between atoms: _287  and  _289
REMARK  111  A    between atoms: _289  and  _290
REMARK                            x       y       z     vdW  Elec       q    Type
REMARK                         _______ _______ _______ _____ _____    ______ ____
ROOT
ATOM      1  O   HOH     1      76.440  34.068   8.059  0.00  0.00    +0.000 OA
ENDROOT
TORSDOF 0
REMARK  Name = ../refined-set-2016/4rvr/4rvr_pocket.pdb
REMARK  111 active torsions:
REMARK  status: ('A' for Active; 'I' for Inactive)
REMARK    1  A    between atoms: _1  and  _3
REMARK    2  A    between atoms: _3  and  _4
REMARK    3  A    between atoms: _7  and  _9
REMARK    4  A    between atoms: _9  and  _10
REMARK    5  A    between atoms: _9  and  _12
REMARK    6  A    between atoms: _12  and  _13
REMARK    7  A    between atoms: _24  and  _25
REMARK    8  A    between atoms: _30  and  _32
REMARK    9  A    between atoms: _32  and  _33
REMARK   10  A    between atoms: _32  and  _35
REMARK   11  A    between atoms: _35  and  _36
REMARK   12  A    between atoms: _42  and  _44
REMARK   13  A    between atoms: _44  and  _45
REMARK   14  A    between atoms: _44  and  _47
REMARK   15  A    between atoms: _47  and  _48
REMARK   16  A    between atoms: _51  and  _53
REMARK   17  A    between atoms: _53  and  _54
REMARK   18  A    between atoms: _53  and  _56
REMARK   19  A    between atoms: _56  and  _57
REMARK   20  A    between atoms: _61  and  _62
REMARK   21  A    between atoms: _67  and  _69
REMARK   22  A    between atoms: _69  and  _70
REMARK   23  A    between atoms: _69  and  _72
REMARK   24  A    between atoms: _75  and  _77
REMARK   25  A    between atoms: _77  and  _78
REMARK   26  A    between atoms: _77  and  _80
REMARK   27  A    between atoms: _80  and  _81
REMARK   28  A    between atoms: _86  and  _88
REMARK   29  A    between atoms: _88  and  _89
REMARK   30  A    between atoms: _88  and  _91
REMARK   31  A    between atoms: _91  and  _92
REMARK   32  A    between atoms: _95  and  _97
REMARK   33  A    between atoms: _97  and  _98
REMARK   34  A    between atoms: _97  and  _100
REMARK   35  A    between atoms: _100  and  _101
REMARK   36  A    between atoms: _101  and  _102
REMARK   37  A    between atoms: _102  and  _103
REMARK   38  A    between atoms: _103  and  _104
REMARK   39  A    between atoms: _108  and  _110
REMARK   40  A    between atoms: _110  and  _111
REMARK   41  A    between atoms: _110  and  _113
REMARK   42  A    between atoms: _113  and  _114
REMARK   43  A    between atoms: _117  and  _119
REMARK   44  A    between atoms: _119  and  _120
REMARK   45  A    between atoms: _119  and  _122
REMARK   46  A    between atoms: _126  and  _127
REMARK   47  A    between atoms: _132  and  _134
REMARK   48  A    between atoms: _134  and  _135
REMARK   49  A    between atoms: _134  and  _137
REMARK   50  A    between atoms: _137  and  _138
REMARK   51  A    between atoms: _143  and  _144
REMARK   52  A    between atoms: _146  and  _148
REMARK   53  A    between atoms: _148  and  _149
REMARK   54  A    between atoms: _148  and  _151
REMARK   55  A    between atoms: _151  and  _152
REMARK   56  A    between atoms: _155  and  _157
REMARK   57  A    between atoms: _157  and  _158
REMARK   58  A    between atoms: _157  and  _160
REMARK   59  A    between atoms: _160  and  _161
REMARK   60  A    between atoms: _161  and  _162
REMARK   61  A    between atoms: _164  and  _166
REMARK   62  A    between atoms: _166  and  _167
REMARK   63  A    between atoms: _166  and  _169
REMARK   64  A    between atoms: _169  and  _170
REMARK   65  A    between atoms: _173  and  _175
REMARK   66  A    between atoms: _175  and  _176
REMARK   67  A    between atoms: _175  and  _178
REMARK   68  A    between atoms: _178  and  _179
REMARK   69  A    between atoms: _185  and  _187
REMARK   70  A    between atoms: _187  and  _188
REMARK   71  A    between atoms: _187  and  _190
REMARK   72  A    between atoms: _190  and  _191
REMARK   73  A    between atoms: _193  and  _195
REMARK   74  A    between atoms: _195  and  _196
REMARK   75  A    between atoms: _195  and  _198
REMARK   76  A    between atoms: _201  and  _203
REMARK   77  A    between atoms: _203  and  _204
REMARK   78  A    between atoms: _203  and  _206
REMARK   79  A    between atoms: _206  and  _207
REMARK   80  A    between atoms: _213  and  _215
REMARK   81  A    between atoms: _215  and  _216
REMARK   82  A    between atoms: _215  and  _218
REMARK   83  A    between atoms: _218  and  _219
REMARK   84  A    between atoms: _224  and  _226
REMARK   85  A    between atoms: _226  and  _227
REMARK   86  A    between atoms: _226  and  _229
REMARK   87  A    between atoms: _231  and  _233
REMARK   88  A    between atoms: _233  and  _234
REMARK   89  A    between atoms: _233  and  _236
REMARK   90  A    between atoms: _236  and  _237
REMARK   91  A    between atoms: _237  and  _238
REMARK   92  A    between atoms: _241  and  _243
REMARK   93  A    between atoms: _243  and  _244
REMARK   94  A    between atoms: _243  and  _246
REMARK   95  A    between atoms: _246  and  _247
REMARK   96  A    between atoms: _250  and  _252
REMARK   97  A    between atoms: _252  and  _253
REMARK   98  A    between atoms: _252  and  _255
REMARK   99  A    between atoms: _255  and  _256
REMARK  100  A    between atoms: _262  and  _264
REMARK  101  A    between atoms: _264  and  _265
REMARK  102  A    between atoms: _264  and  _267
REMARK  103  A    between atoms: _267  and  _268
REMARK  104  A    between atoms: _273  and  _275
REMARK  105  A    between atoms: _275  and  _276
REMARK  106  A    between atoms: _275  and  _278
REMARK  107  A    between atoms: _278  and  _279
REMARK  108  A    between atoms: _282  and  _284
REMARK  109  A    between atoms: _284  and  _285
REMARK  110  A    between atoms: _287  and  _289
REMARK  111  A    between atoms: _289  and  _290
REMARK                            x       y       z     vdW  Elec       q    Type
REMARK                         _______ _______ _______ _____ _____    ______ ____
ROOT
ATOM      1  O   HOH     1      68.525  42.298  -6.780  0.00  0.00    +0.000 OA
ENDROOT
TORSDOF 0
REMARK  Name = ../refined-set-2016/4rvr/4rvr_pocket.pdb
REMARK  111 active torsions:
REMARK  status: ('A' for Active; 'I' for Inactive)
REMARK    1  A    between atoms: _1  and  _3
REMARK    2  A    between atoms: _3  and  _4
REMARK    3  A    between atoms: _7  and  _9
REMARK    4  A    between atoms: _9  and  _10
REMARK    5  A    between atoms: _9  and  _12
REMARK    6  A    between atoms: _12  and  _13
REMARK    7  A    between atoms: _24  and  _25
REMARK    8  A    between atoms: _30  and  _32
REMARK    9  A    between atoms: _32  and  _33
REMARK   10  A    between atoms: _32  and  _35
REMARK   11  A    between atoms: _35  and  _36
REMARK   12  A    between atoms: _42  and  _44
REMARK   13  A    between atoms: _44  and  _45
REMARK   14  A    between atoms: _44  and  _47
REMARK   15  A    between atoms: _47  and  _48
REMARK   16  A    between atoms: _51  and  _53
REMARK   17  A    between atoms: _53  and  _54
REMARK   18  A    between atoms: _53  and  _56
REMARK   19  A    between atoms: _56  and  _57
REMARK   20  A    between atoms: _61  and  _62
REMARK   21  A    between atoms: _67  and  _69
REMARK   22  A    between atoms: _69  and  _70
REMARK   23  A    between atoms: _69  and  _72
REMARK   24  A    between atoms: _75  and  _77
REMARK   25  A    between atoms: _77  and  _78
REMARK   26  A    between atoms: _77  and  _80
REMARK   27  A    between atoms: _80  and  _81
REMARK   28  A    between atoms: _86  and  _88
REMARK   29  A    between atoms: _88  and  _89
REMARK   30  A    between atoms: _88  and  _91
REMARK   31  A    between atoms: _91  and  _92
REMARK   32  A    between atoms: _95  and  _97
REMARK   33  A    between atoms: _97  and  _98
REMARK   34  A    between atoms: _97  and  _100
REMARK   35  A    between atoms: _100  and  _101
REMARK   36  A    between atoms: _101  and  _102
REMARK   37  A    between atoms: _102  and  _103
REMARK   38  A    between atoms: _103  and  _104
REMARK   39  A    between atoms: _108  and  _110
REMARK   40  A    between atoms: _110  and  _111
REMARK   41  A    between atoms: _110  and  _113
REMARK   42  A    between atoms: _113  and  _114
REMARK   43  A    between atoms: _117  and  _119
REMARK   44  A    between atoms: _119  and  _120
REMARK   45  A    between atoms: _119  and  _122
REMARK   46  A    between atoms: _126  and  _127
REMARK   47  A    between atoms: _132  and  _134
REMARK   48  A    between atoms: _134  and  _135
REMARK   49  A    between atoms: _134  and  _137
REMARK   50  A    between atoms: _137  and  _138
REMARK   51  A    between atoms: _143  and  _144
REMARK   52  A    between atoms: _146  and  _148
REMARK   53  A    between atoms: _148  and  _149
REMARK   54  A    between atoms: _148  and  _151
REMARK   55  A    between atoms: _151  and  _152
REMARK   56  A    between atoms: _155  and  _157
REMARK   57  A    between atoms: _157  and  _158
REMARK   58  A    between atoms: _157  and  _160
REMARK   59  A    between atoms: _160  and  _161
REMARK   60  A    between atoms: _161  and  _162
REMARK   61  A    between atoms: _164  and  _166
REMARK   62  A    between atoms: _166  and  _167
REMARK   63  A    between atoms: _166  and  _169
REMARK   64  A    between atoms: _169  and  _170
REMARK   65  A    between atoms: _173  and  _175
REMARK   66  A    between atoms: _175  and  _176
REMARK   67  A    between atoms: _175  and  _178
REMARK   68  A    between atoms: _178  and  _179
REMARK   69  A    between atoms: _185  and  _187
REMARK   70  A    between atoms: _187  and  _188
REMARK   71  A    between atoms: _187  and  _190
REMARK   72  A    between atoms: _190  and  _191
REMARK   73  A    between atoms: _193  and  _195
REMARK   74  A    between atoms: _195  and  _196
REMARK   75  A    between atoms: _195  and  _198
REMARK   76  A    between atoms: _201  and  _203
REMARK   77  A    between atoms: _203  and  _204
REMARK   78  A    between atoms: _203  and  _206
REMARK   79  A    between atoms: _206  and  _207
REMARK   80  A    between atoms: _213  and  _215
REMARK   81  A    between atoms: _215  and  _216
REMARK   82  A    between atoms: _215  and  _218
REMARK   83  A    between atoms: _218  and  _219
REMARK   84  A    between atoms: _224  and  _226
REMARK   85  A    between atoms: _226  and  _227
REMARK   86  A    between atoms: _226  and  _229
REMARK   87  A    between atoms: _231  and  _233
REMARK   88  A    between atoms: _233  and  _234
REMARK   89  A    between atoms: _233  and  _236
REMARK   90  A    between atoms: _236  and  _237
REMARK   91  A    between atoms: _237  and  _238
REMARK   92  A    between atoms: _241  and  _243
REMARK   93  A    between atoms: _243  and  _244
REMARK   94  A    between atoms: _243  and  _246
REMARK   95  A    between atoms: _246  and  _247
REMARK   96  A    between atoms: _250  and  _252
REMARK   97  A    between atoms: _252  and  _253
REMARK   98  A    between atoms: _252  and  _255
REMARK   99  A    between atoms: _255  and  _256
REMARK  100  A    between atoms: _262  and  _264
REMARK  101  A    between atoms: _264  and  _265
REMARK  102  A    between atoms: _264  and  _267
REMARK  103  A    between atoms: _267  and  _268
REMARK  104  A    between atoms: _273  and  _275
REMARK  105  A    between atoms: _275  and  _276
REMARK  106  A    between atoms: _275  and  _278
REMARK  107  A    between atoms: _278  and  _279
REMARK  108  A    between atoms: _282  and  _284
REMARK  109  A    between atoms: _284  and  _285
REMARK  110  A    between atoms: _287  and  _289
REMARK  111  A    between atoms: _289  and  _290
REMARK                            x       y       z     vdW  Elec       q    Type
REMARK                         _______ _______ _______ _____ _____    ______ ____
ROOT
ATOM      1  O   HOH     1      75.721  40.067   0.062  0.00  0.00    +0.000 OA
ENDROOT
TORSDOF 0
REMARK  Name = ../refined-set-2016/4rvr/4rvr_pocket.pdb
REMARK  111 active torsions:
REMARK  status: ('A' for Active; 'I' for Inactive)
REMARK    1  A    between atoms: _1  and  _3
REMARK    2  A    between atoms: _3  and  _4
REMARK    3  A    between atoms: _7  and  _9
REMARK    4  A    between atoms: _9  and  _10
REMARK    5  A    between atoms: _9  and  _12
REMARK    6  A    between atoms: _12  and  _13
REMARK    7  A    between atoms: _24  and  _25
REMARK    8  A    between atoms: _30  and  _32
REMARK    9  A    between atoms: _32  and  _33
REMARK   10  A    between atoms: _32  and  _35
REMARK   11  A    between atoms: _35  and  _36
REMARK   12  A    between atoms: _42  and  _44
REMARK   13  A    between atoms: _44  and  _45
REMARK   14  A    between atoms: _44  and  _47
REMARK   15  A    between atoms: _47  and  _48
REMARK   16  A    between atoms: _51  and  _53
REMARK   17  A    between atoms: _53  and  _54
REMARK   18  A    between atoms: _53  and  _56
REMARK   19  A    between atoms: _56  and  _57
REMARK   20  A    between atoms: _61  and  _62
REMARK   21  A    between atoms: _67  and  _69
REMARK   22  A    between atoms: _69  and  _70
REMARK   23  A    between atoms: _69  and  _72
REMARK   24  A    between atoms: _75  and  _77
REMARK   25  A    between atoms: _77  and  _78
REMARK   26  A    between atoms: _77  and  _80
REMARK   27  A    between atoms: _80  and  _81
REMARK   28  A    between atoms: _86  and  _88
REMARK   29  A    between atoms: _88  and  _89
REMARK   30  A    between atoms: _88  and  _91
REMARK   31  A    between atoms: _91  and  _92
REMARK   32  A    between atoms: _95  and  _97
REMARK   33  A    between atoms: _97  and  _98
REMARK   34  A    between atoms: _97  and  _100
REMARK   35  A    between atoms: _100  and  _101
REMARK   36  A    between atoms: _101  and  _102
REMARK   37  A    between atoms: _102  and  _103
REMARK   38  A    between atoms: _103  and  _104
REMARK   39  A    between atoms: _108  and  _110
REMARK   40  A    between atoms: _110  and  _111
REMARK   41  A    between atoms: _110  and  _113
REMARK   42  A    between atoms: _113  and  _114
REMARK   43  A    between atoms: _117  and  _119
REMARK   44  A    between atoms: _119  and  _120
REMARK   45  A    between atoms: _119  and  _122
REMARK   46  A    between atoms: _126  and  _127
REMARK   47  A    between atoms: _132  and  _134
REMARK   48  A    between atoms: _134  and  _135
REMARK   49  A    between atoms: _134  and  _137
REMARK   50  A    between atoms: _137  and  _138
REMARK   51  A    between atoms: _143  and  _144
REMARK   52  A    between atoms: _146  and  _148
REMARK   53  A    between atoms: _148  and  _149
REMARK   54  A    between atoms: _148  and  _151
REMARK   55  A    between atoms: _151  and  _152
REMARK   56  A    between atoms: _155  and  _157
REMARK   57  A    between atoms: _157  and  _158
REMARK   58  A    between atoms: _157  and  _160
REMARK   59  A    between atoms: _160  and  _161
REMARK   60  A    between atoms: _161  and  _162
REMARK   61  A    between atoms: _164  and  _166
REMARK   62  A    between atoms: _166  and  _167
REMARK   63  A    between atoms: _166  and  _169
REMARK   64  A    between atoms: _169  and  _170
REMARK   65  A    between atoms: _173  and  _175
REMARK   66  A    between atoms: _175  and  _176
REMARK   67  A    between atoms: _175  and  _178
REMARK   68  A    between atoms: _178  and  _179
REMARK   69  A    between atoms: _185  and  _187
REMARK   70  A    between atoms: _187  and  _188
REMARK   71  A    between atoms: _187  and  _190
REMARK   72  A    between atoms: _190  and  _191
REMARK   73  A    between atoms: _193  and  _195
REMARK   74  A    between atoms: _195  and  _196
REMARK   75  A    between atoms: _195  and  _198
REMARK   76  A    between atoms: _201  and  _203
REMARK   77  A    between atoms: _203  and  _204
REMARK   78  A    between atoms: _203  and  _206
REMARK   79  A    between atoms: _206  and  _207
REMARK   80  A    between atoms: _213  and  _215
REMARK   81  A    between atoms: _215  and  _216
REMARK   82  A    between atoms: _215  and  _218
REMARK   83  A    between atoms: _218  and  _219
REMARK   84  A    between atoms: _224  and  _226
REMARK   85  A    between atoms: _226  and  _227
REMARK   86  A    between atoms: _226  and  _229
REMARK   87  A    between atoms: _231  and  _233
REMARK   88  A    between atoms: _233  and  _234
REMARK   89  A    between atoms: _233  and  _236
REMARK   90  A    between atoms: _236  and  _237
REMARK   91  A    between atoms: _237  and  _238
REMARK   92  A    between atoms: _241  and  _243
REMARK   93  A    between atoms: _243  and  _244
REMARK   94  A    between atoms: _243  and  _246
REMARK   95  A    between atoms: _246  and  _247
REMARK   96  A    between atoms: _250  and  _252
REMARK   97  A    between atoms: _252  and  _253
REMARK   98  A    between atoms: _252  and  _255
REMARK   99  A    between atoms: _255  and  _256
REMARK  100  A    between atoms: _262  and  _264
REMARK  101  A    between atoms: _264  and  _265
REMARK  102  A    between atoms: _264  and  _267
REMARK  103  A    between atoms: _267  and  _268
REMARK  104  A    between atoms: _273  and  _275
REMARK  105  A    between atoms: _275  and  _276
REMARK  106  A    between atoms: _275  and  _278
REMARK  107  A    between atoms: _278  and  _279
REMARK  108  A    between atoms: _282  and  _284
REMARK  109  A    between atoms: _284  and  _285
REMARK  110  A    between atoms: _287  and  _289
REMARK  111  A    between atoms: _289  and  _290
REMARK                            x       y       z     vdW  Elec       q    Type
REMARK                         _______ _______ _______ _____ _____    ______ ____
ROOT
ATOM      1  O   HOH     1      77.678  37.853  -2.462  0.00  0.00    +0.000 OA
ENDROOT
TORSDOF 0
REMARK  Name = ../refined-set-2016/4rvr/4rvr_pocket.pdb
REMARK  111 active torsions:
REMARK  status: ('A' for Active; 'I' for Inactive)
REMARK    1  A    between atoms: _1  and  _3
REMARK    2  A    between atoms: _3  and  _4
REMARK    3  A    between atoms: _7  and  _9
REMARK    4  A    between atoms: _9  and  _10
REMARK    5  A    between atoms: _9  and  _12
REMARK    6  A    between atoms: _12  and  _13
REMARK    7  A    between atoms: _24  and  _25
REMARK    8  A    between atoms: _30  and  _32
REMARK    9  A    between atoms: _32  and  _33
REMARK   10  A    between atoms: _32  and  _35
REMARK   11  A    between atoms: _35  and  _36
REMARK   12  A    between atoms: _42  and  _44
REMARK   13  A    between atoms: _44  and  _45
REMARK   14  A    between atoms: _44  and  _47
REMARK   15  A    between atoms: _47  and  _48
REMARK   16  A    between atoms: _51  and  _53
REMARK   17  A    between atoms: _53  and  _54
REMARK   18  A    between atoms: _53  and  _56
REMARK   19  A    between atoms: _56  and  _57
REMARK   20  A    between atoms: _61  and  _62
REMARK   21  A    between atoms: _67  and  _69
REMARK   22  A    between atoms: _69  and  _70
REMARK   23  A    between atoms: _69  and  _72
REMARK   24  A    between atoms: _75  and  _77
REMARK   25  A    between atoms: _77  and  _78
REMARK   26  A    between atoms: _77  and  _80
REMARK   27  A    between atoms: _80  and  _81
REMARK   28  A    between atoms: _86  and  _88
REMARK   29  A    between atoms: _88  and  _89
REMARK   30  A    between atoms: _88  and  _91
REMARK   31  A    between atoms: _91  and  _92
REMARK   32  A    between atoms: _95  and  _97
REMARK   33  A    between atoms: _97  and  _98
REMARK   34  A    between atoms: _97  and  _100
REMARK   35  A    between atoms: _100  and  _101
REMARK   36  A    between atoms: _101  and  _102
REMARK   37  A    between atoms: _102  and  _103
REMARK   38  A    between atoms: _103  and  _104
REMARK   39  A    between atoms: _108  and  _110
REMARK   40  A    between atoms: _110  and  _111
REMARK   41  A    between atoms: _110  and  _113
REMARK   42  A    between atoms: _113  and  _114
REMARK   43  A    between atoms: _117  and  _119
REMARK   44  A    between atoms: _119  and  _120
REMARK   45  A    between atoms: _119  and  _122
REMARK   46  A    between atoms: _126  and  _127
REMARK   47  A    between atoms: _132  and  _134
REMARK   48  A    between atoms: _134  and  _135
REMARK   49  A    between atoms: _134  and  _137
REMARK   50  A    between atoms: _137  and  _138
REMARK   51  A    between atoms: _143  and  _144
REMARK   52  A    between atoms: _146  and  _148
REMARK   53  A    between atoms: _148  and  _149
REMARK   54  A    between atoms: _148  and  _151
REMARK   55  A    between atoms: _151  and  _152
REMARK   56  A    between atoms: _155  and  _157
REMARK   57  A    between atoms: _157  and  _158
REMARK   58  A    between atoms: _157  and  _160
REMARK   59  A    between atoms: _160  and  _161
REMARK   60  A    between atoms: _161  and  _162
REMARK   61  A    between atoms: _164  and  _166
REMARK   62  A    between atoms: _166  and  _167
REMARK   63  A    between atoms: _166  and  _169
REMARK   64  A    between atoms: _169  and  _170
REMARK   65  A    between atoms: _173  and  _175
REMARK   66  A    between atoms: _175  and  _176
REMARK   67  A    between atoms: _175  and  _178
REMARK   68  A    between atoms: _178  and  _179
REMARK   69  A    between atoms: _185  and  _187
REMARK   70  A    between atoms: _187  and  _188
REMARK   71  A    between atoms: _187  and  _190
REMARK   72  A    between atoms: _190  and  _191
REMARK   73  A    between atoms: _193  and  _195
REMARK   74  A    between atoms: _195  and  _196
REMARK   75  A    between atoms: _195  and  _198
REMARK   76  A    between atoms: _201  and  _203
REMARK   77  A    between atoms: _203  and  _204
REMARK   78  A    between atoms: _203  and  _206
REMARK   79  A    between atoms: _206  and  _207
REMARK   80  A    between atoms: _213  and  _215
REMARK   81  A    between atoms: _215  and  _216
REMARK   82  A    between atoms: _215  and  _218
REMARK   83  A    between atoms: _218  and  _219
REMARK   84  A    between atoms: _224  and  _226
REMARK   85  A    between atoms: _226  and  _227
REMARK   86  A    between atoms: _226  and  _229
REMARK   87  A    between atoms: _231  and  _233
REMARK   88  A    between atoms: _233  and  _234
REMARK   89  A    between atoms: _233  and  _236
REMARK   90  A    between atoms: _236  and  _237
REMARK   91  A    between atoms: _237  and  _238
REMARK   92  A    between atoms: _241  and  _243
REMARK   93  A    between atoms: _243  and  _244
REMARK   94  A    between atoms: _243  and  _246
REMARK   95  A    between atoms: _246  and  _247
REMARK   96  A    between atoms: _250  and  _252
REMARK   97  A    between atoms: _252  and  _253
REMARK   98  A    between atoms: _252  and  _255
REMARK   99  A    between atoms: _255  and  _256
REMARK  100  A    between atoms: _262  and  _264
REMARK  101  A    between atoms: _264  and  _265
REMARK  102  A    between atoms: _264  and  _267
REMARK  103  A    between atoms: _267  and  _268
REMARK  104  A    between atoms: _273  and  _275
REMARK  105  A    between atoms: _275  and  _276
REMARK  106  A    between atoms: _275  and  _278
REMARK  107  A    between atoms: _278  and  _279
REMARK  108  A    between atoms: _282  and  _284
REMARK  109  A    between atoms: _284  and  _285
REMARK  110  A    between atoms: _287  and  _289
REMARK  111  A    between atoms: _289  and  _290
REMARK                            x       y       z     vdW  Elec       q    Type
REMARK                         _______ _______ _______ _____ _____    ______ ____
ROOT
ATOM      1  O   HOH     1      75.138  30.250   3.171  0.00  0.00    +0.000 OA
ENDROOT
TORSDOF 0
REMARK  Name = ../refined-set-2016/4rvr/4rvr_pocket.pdb
REMARK  111 active torsions:
REMARK  status: ('A' for Active; 'I' for Inactive)
REMARK    1  A    between atoms: _1  and  _3
REMARK    2  A    between atoms: _3  and  _4
REMARK    3  A    between atoms: _7  and  _9
REMARK    4  A    between atoms: _9  and  _10
REMARK    5  A    between atoms: _9  and  _12
REMARK    6  A    between atoms: _12  and  _13
REMARK    7  A    between atoms: _24  and  _25
REMARK    8  A    between atoms: _30  and  _32
REMARK    9  A    between atoms: _32  and  _33
REMARK   10  A    between atoms: _32  and  _35
REMARK   11  A    between atoms: _35  and  _36
REMARK   12  A    between atoms: _42  and  _44
REMARK   13  A    between atoms: _44  and  _45
REMARK   14  A    between atoms: _44  and  _47
REMARK   15  A    between atoms: _47  and  _48
REMARK   16  A    between atoms: _51  and  _53
REMARK   17  A    between atoms: _53  and  _54
REMARK   18  A    between atoms: _53  and  _56
REMARK   19  A    between atoms: _56  and  _57
REMARK   20  A    between atoms: _61  and  _62
REMARK   21  A    between atoms: _67  and  _69
REMARK   22  A    between atoms: _69  and  _70
REMARK   23  A    between atoms: _69  and  _72
REMARK   24  A    between atoms: _75  and  _77
REMARK   25  A    between atoms: _77  and  _78
REMARK   26  A    between atoms: _77  and  _80
REMARK   27  A    between atoms: _80  and  _81
REMARK   28  A    between atoms: _86  and  _88
REMARK   29  A    between atoms: _88  and  _89
REMARK   30  A    between atoms: _88  and  _91
REMARK   31  A    between atoms: _91  and  _92
REMARK   32  A    between atoms: _95  and  _97
REMARK   33  A    between atoms: _97  and  _98
REMARK   34  A    between atoms: _97  and  _100
REMARK   35  A    between atoms: _100  and  _101
REMARK   36  A    between atoms: _101  and  _102
REMARK   37  A    between atoms: _102  and  _103
REMARK   38  A    between atoms: _103  and  _104
REMARK   39  A    between atoms: _108  and  _110
REMARK   40  A    between atoms: _110  and  _111
REMARK   41  A    between atoms: _110  and  _113
REMARK   42  A    between atoms: _113  and  _114
REMARK   43  A    between atoms: _117  and  _119
REMARK   44  A    between atoms: _119  and  _120
REMARK   45  A    between atoms: _119  and  _122
REMARK   46  A    between atoms: _126  and  _127
REMARK   47  A    between atoms: _132  and  _134
REMARK   48  A    between atoms: _134  and  _135
REMARK   49  A    between atoms: _134  and  _137
REMARK   50  A    between atoms: _137  and  _138
REMARK   51  A    between atoms: _143  and  _144
REMARK   52  A    between atoms: _146  and  _148
REMARK   53  A    between atoms: _148  and  _149
REMARK   54  A    between atoms: _148  and  _151
REMARK   55  A    between atoms: _151  and  _152
REMARK   56  A    between atoms: _155  and  _157
REMARK   57  A    between atoms: _157  and  _158
REMARK   58  A    between atoms: _157  and  _160
REMARK   59  A    between atoms: _160  and  _161
REMARK   60  A    between atoms: _161  and  _162
REMARK   61  A    between atoms: _164  and  _166
REMARK   62  A    between atoms: _166  and  _167
REMARK   63  A    between atoms: _166  and  _169
REMARK   64  A    between atoms: _169  and  _170
REMARK   65  A    between atoms: _173  and  _175
REMARK   66  A    between atoms: _175  and  _176
REMARK   67  A    between atoms: _175  and  _178
REMARK   68  A    between atoms: _178  and  _179
REMARK   69  A    between atoms: _185  and  _187
REMARK   70  A    between atoms: _187  and  _188
REMARK   71  A    between atoms: _187  and  _190
REMARK   72  A    between atoms: _190  and  _191
REMARK   73  A    between atoms: _193  and  _195
REMARK   74  A    between atoms: _195  and  _196
REMARK   75  A    between atoms: _195  and  _198
REMARK   76  A    between atoms: _201  and  _203
REMARK   77  A    between atoms: _203  and  _204
REMARK   78  A    between atoms: _203  and  _206
REMARK   79  A    between atoms: _206  and  _207
REMARK   80  A    between atoms: _213  and  _215
REMARK   81  A    between atoms: _215  and  _216
REMARK   82  A    between atoms: _215  and  _218
REMARK   83  A    between atoms: _218  and  _219
REMARK   84  A    between atoms: _224  and  _226
REMARK   85  A    between atoms: _226  and  _227
REMARK   86  A    between atoms: _226  and  _229
REMARK   87  A    between atoms: _231  and  _233
REMARK   88  A    between atoms: _233  and  _234
REMARK   89  A    between atoms: _233  and  _236
REMARK   90  A    between atoms: _236  and  _237
REMARK   91  A    between atoms: _237  and  _238
REMARK   92  A    between atoms: _241  and  _243
REMARK   93  A    between atoms: _243  and  _244
REMARK   94  A    between atoms: _243  and  _246
REMARK   95  A    between atoms: _246  and  _247
REMARK   96  A    between atoms: _250  and  _252
REMARK   97  A    between atoms: _252  and  _253
REMARK   98  A    between atoms: _252  and  _255
REMARK   99  A    between atoms: _255  and  _256
REMARK  100  A    between atoms: _262  and  _264
REMARK  101  A    between atoms: _264  and  _265
REMARK  102  A    between atoms: _264  and  _267
REMARK  103  A    between atoms: _267  and  _268
REMARK  104  A    between atoms: _273  and  _275
REMARK  105  A    between atoms: _275  and  _276
REMARK  106  A    between atoms: _275  and  _278
REMARK  107  A    between atoms: _278  and  _279
REMARK  108  A    between atoms: _282  and  _284
REMARK  109  A    between atoms: _284  and  _285
REMARK  110  A    between atoms: _287  and  _289
REMARK  111  A    between atoms: _289  and  _290
REMARK                            x       y       z     vdW  Elec       q    Type
REMARK                         _______ _______ _______ _____ _____    ______ ____
ROOT
ATOM      1  O   HOH     1      76.228  33.812  -2.566  0.00  0.00    +0.000 OA
ENDROOT
TORSDOF 0
REMARK  Name = ../refined-set-2016/4rvr/4rvr_pocket.pdb
REMARK  111 active torsions:
REMARK  status: ('A' for Active; 'I' for Inactive)
REMARK    1  A    between atoms: _1  and  _3
REMARK    2  A    between atoms: _3  and  _4
REMARK    3  A    between atoms: _7  and  _9
REMARK    4  A    between atoms: _9  and  _10
REMARK    5  A    between atoms: _9  and  _12
REMARK    6  A    between atoms: _12  and  _13
REMARK    7  A    between atoms: _24  and  _25
REMARK    8  A    between atoms: _30  and  _32
REMARK    9  A    between atoms: _32  and  _33
REMARK   10  A    between atoms: _32  and  _35
REMARK   11  A    between atoms: _35  and  _36
REMARK   12  A    between atoms: _42  and  _44
REMARK   13  A    between atoms: _44  and  _45
REMARK   14  A    between atoms: _44  and  _47
REMARK   15  A    between atoms: _47  and  _48
REMARK   16  A    between atoms: _51  and  _53
REMARK   17  A    between atoms: _53  and  _54
REMARK   18  A    between atoms: _53  and  _56
REMARK   19  A    between atoms: _56  and  _57
REMARK   20  A    between atoms: _61  and  _62
REMARK   21  A    between atoms: _67  and  _69
REMARK   22  A    between atoms: _69  and  _70
REMARK   23  A    between atoms: _69  and  _72
REMARK   24  A    between atoms: _75  and  _77
REMARK   25  A    between atoms: _77  and  _78
REMARK   26  A    between atoms: _77  and  _80
REMARK   27  A    between atoms: _80  and  _81
REMARK   28  A    between atoms: _86  and  _88
REMARK   29  A    between atoms: _88  and  _89
REMARK   30  A    between atoms: _88  and  _91
REMARK   31  A    between atoms: _91  and  _92
REMARK   32  A    between atoms: _95  and  _97
REMARK   33  A    between atoms: _97  and  _98
REMARK   34  A    between atoms: _97  and  _100
REMARK   35  A    between atoms: _100  and  _101
REMARK   36  A    between atoms: _101  and  _102
REMARK   37  A    between atoms: _102  and  _103
REMARK   38  A    between atoms: _103  and  _104
REMARK   39  A    between atoms: _108  and  _110
REMARK   40  A    between atoms: _110  and  _111
REMARK   41  A    between atoms: _110  and  _113
REMARK   42  A    between atoms: _113  and  _114
REMARK   43  A    between atoms: _117  and  _119
REMARK   44  A    between atoms: _119  and  _120
REMARK   45  A    between atoms: _119  and  _122
REMARK   46  A    between atoms: _126  and  _127
REMARK   47  A    between atoms: _132  and  _134
REMARK   48  A    between atoms: _134  and  _135
REMARK   49  A    between atoms: _134  and  _137
REMARK   50  A    between atoms: _137  and  _138
REMARK   51  A    between atoms: _143  and  _144
REMARK   52  A    between atoms: _146  and  _148
REMARK   53  A    between atoms: _148  and  _149
REMARK   54  A    between atoms: _148  and  _151
REMARK   55  A    between atoms: _151  and  _152
REMARK   56  A    between atoms: _155  and  _157
REMARK   57  A    between atoms: _157  and  _158
REMARK   58  A    between atoms: _157  and  _160
REMARK   59  A    between atoms: _160  and  _161
REMARK   60  A    between atoms: _161  and  _162
REMARK   61  A    between atoms: _164  and  _166
REMARK   62  A    between atoms: _166  and  _167
REMARK   63  A    between atoms: _166  and  _169
REMARK   64  A    between atoms: _169  and  _170
REMARK   65  A    between atoms: _173  and  _175
REMARK   66  A    between atoms: _175  and  _176
REMARK   67  A    between atoms: _175  and  _178
REMARK   68  A    between atoms: _178  and  _179
REMARK   69  A    between atoms: _185  and  _187
REMARK   70  A    between atoms: _187  and  _188
REMARK   71  A    between atoms: _187  and  _190
REMARK   72  A    between atoms: _190  and  _191
REMARK   73  A    between atoms: _193  and  _195
REMARK   74  A    between atoms: _195  and  _196
REMARK   75  A    between atoms: _195  and  _198
REMARK   76  A    between atoms: _201  and  _203
REMARK   77  A    between atoms: _203  and  _204
REMARK   78  A    between atoms: _203  and  _206
REMARK   79  A    between atoms: _206  and  _207
REMARK   80  A    between atoms: _213  and  _215
REMARK   81  A    between atoms: _215  and  _216
REMARK   82  A    between atoms: _215  and  _218
REMARK   83  A    between atoms: _218  and  _219
REMARK   84  A    between atoms: _224  and  _226
REMARK   85  A    between atoms: _226  and  _227
REMARK   86  A    between atoms: _226  and  _229
REMARK   87  A    between atoms: _231  and  _233
REMARK   88  A    between atoms: _233  and  _234
REMARK   89  A    between atoms: _233  and  _236
REMARK   90  A    between atoms: _236  and  _237
REMARK   91  A    between atoms: _237  and  _238
REMARK   92  A    between atoms: _241  and  _243
REMARK   93  A    between atoms: _243  and  _244
REMARK   94  A    between atoms: _243  and  _246
REMARK   95  A    between atoms: _246  and  _247
REMARK   96  A    between atoms: _250  and  _252
REMARK   97  A    between atoms: _252  and  _253
REMARK   98  A    between atoms: _252  and  _255
REMARK   99  A    between atoms: _255  and  _256
REMARK  100  A    between atoms: _262  and  _264
REMARK  101  A    between atoms: _264  and  _265
REMARK  102  A    between atoms: _264  and  _267
REMARK  103  A    between atoms: _267  and  _268
REMARK  104  A    between atoms: _273  and  _275
REMARK  105  A    between atoms: _275  and  _276
REMARK  106  A    between atoms: _275  and  _278
REMARK  107  A    between atoms: _278  and  _279
REMARK  108  A    between atoms: _282  and  _284
REMARK  109  A    between atoms: _284  and  _285
REMARK  110  A    between atoms: _287  and  _289
REMARK  111  A    between atoms: _289  and  _290
REMARK                            x       y       z     vdW  Elec       q    Type
REMARK                         _______ _______ _______ _____ _____    ______ ____
ROOT
ATOM      1  O   HOH     1      73.967  39.447  -4.440  0.00  0.00    +0.000 OA
ENDROOT
TORSDOF 0
REMARK  Name = ../refined-set-2016/4rvr/4rvr_pocket.pdb
REMARK  111 active torsions:
REMARK  status: ('A' for Active; 'I' for Inactive)
REMARK    1  A    between atoms: _1  and  _3
REMARK    2  A    between atoms: _3  and  _4
REMARK    3  A    between atoms: _7  and  _9
REMARK    4  A    between atoms: _9  and  _10
REMARK    5  A    between atoms: _9  and  _12
REMARK    6  A    between atoms: _12  and  _13
REMARK    7  A    between atoms: _24  and  _25
REMARK    8  A    between atoms: _30  and  _32
REMARK    9  A    between atoms: _32  and  _33
REMARK   10  A    between atoms: _32  and  _35
REMARK   11  A    between atoms: _35  and  _36
REMARK   12  A    between atoms: _42  and  _44
REMARK   13  A    between atoms: _44  and  _45
REMARK   14  A    between atoms: _44  and  _47
REMARK   15  A    between atoms: _47  and  _48
REMARK   16  A    between atoms: _51  and  _53
REMARK   17  A    between atoms: _53  and  _54
REMARK   18  A    between atoms: _53  and  _56
REMARK   19  A    between atoms: _56  and  _57
REMARK   20  A    between atoms: _61  and  _62
REMARK   21  A    between atoms: _67  and  _69
REMARK   22  A    between atoms: _69  and  _70
REMARK   23  A    between atoms: _69  and  _72
REMARK   24  A    between atoms: _75  and  _77
REMARK   25  A    between atoms: _77  and  _78
REMARK   26  A    between atoms: _77  and  _80
REMARK   27  A    between atoms: _80  and  _81
REMARK   28  A    between atoms: _86  and  _88
REMARK   29  A    between atoms: _88  and  _89
REMARK   30  A    between atoms: _88  and  _91
REMARK   31  A    between atoms: _91  and  _92
REMARK   32  A    between atoms: _95  and  _97
REMARK   33  A    between atoms: _97  and  _98
REMARK   34  A    between atoms: _97  and  _100
REMARK   35  A    between atoms: _100  and  _101
REMARK   36  A    between atoms: _101  and  _102
REMARK   37  A    between atoms: _102  and  _103
REMARK   38  A    between atoms: _103  and  _104
REMARK   39  A    between atoms: _108  and  _110
REMARK   40  A    between atoms: _110  and  _111
REMARK   41  A    between atoms: _110  and  _113
REMARK   42  A    between atoms: _113  and  _114
REMARK   43  A    between atoms: _117  and  _119
REMARK   44  A    between atoms: _119  and  _120
REMARK   45  A    between atoms: _119  and  _122
REMARK   46  A    between atoms: _126  and  _127
REMARK   47  A    between atoms: _132  and  _134
REMARK   48  A    between atoms: _134  and  _135
REMARK   49  A    between atoms: _134  and  _137
REMARK   50  A    between atoms: _137  and  _138
REMARK   51  A    between atoms: _143  and  _144
REMARK   52  A    between atoms: _146  and  _148
REMARK   53  A    between atoms: _148  and  _149
REMARK   54  A    between atoms: _148  and  _151
REMARK   55  A    between atoms: _151  and  _152
REMARK   56  A    between atoms: _155  and  _157
REMARK   57  A    between atoms: _157  and  _158
REMARK   58  A    between atoms: _157  and  _160
REMARK   59  A    between atoms: _160  and  _161
REMARK   60  A    between atoms: _161  and  _162
REMARK   61  A    between atoms: _164  and  _166
REMARK   62  A    between atoms: _166  and  _167
REMARK   63  A    between atoms: _166  and  _169
REMARK   64  A    between atoms: _169  and  _170
REMARK   65  A    between atoms: _173  and  _175
REMARK   66  A    between atoms: _175  and  _176
REMARK   67  A    between atoms: _175  and  _178
REMARK   68  A    between atoms: _178  and  _179
REMARK   69  A    between atoms: _185  and  _187
REMARK   70  A    between atoms: _187  and  _188
REMARK   71  A    between atoms: _187  and  _190
REMARK   72  A    between atoms: _190  and  _191
REMARK   73  A    between atoms: _193  and  _195
REMARK   74  A    between atoms: _195  and  _196
REMARK   75  A    between atoms: _195  and  _198
REMARK   76  A    between atoms: _201  and  _203
REMARK   77  A    between atoms: _203  and  _204
REMARK   78  A    between atoms: _203  and  _206
REMARK   79  A    between atoms: _206  and  _207
REMARK   80  A    between atoms: _213  and  _215
REMARK   81  A    between atoms: _215  and  _216
REMARK   82  A    between atoms: _215  and  _218
REMARK   83  A    between atoms: _218  and  _219
REMARK   84  A    between atoms: _224  and  _226
REMARK   85  A    between atoms: _226  and  _227
REMARK   86  A    between atoms: _226  and  _229
REMARK   87  A    between atoms: _231  and  _233
REMARK   88  A    between atoms: _233  and  _234
REMARK   89  A    between atoms: _233  and  _236
REMARK   90  A    between atoms: _236  and  _237
REMARK   91  A    between atoms: _237  and  _238
REMARK   92  A    between atoms: _241  and  _243
REMARK   93  A    between atoms: _243  and  _244
REMARK   94  A    between atoms: _243  and  _246
REMARK   95  A    between atoms: _246  and  _247
REMARK   96  A    between atoms: _250  and  _252
REMARK   97  A    between atoms: _252  and  _253
REMARK   98  A    between atoms: _252  and  _255
REMARK   99  A    between atoms: _255  and  _256
REMARK  100  A    between atoms: _262  and  _264
REMARK  101  A    between atoms: _264  and  _265
REMARK  102  A    between atoms: _264  and  _267
REMARK  103  A    between atoms: _267  and  _268
REMARK  104  A    between atoms: _273  and  _275
REMARK  105  A    between atoms: _275  and  _276
REMARK  106  A    between atoms: _275  and  _278
REMARK  107  A    between atoms: _278  and  _279
REMARK  108  A    between atoms: _282  and  _284
REMARK  109  A    between atoms: _284  and  _285
REMARK  110  A    between atoms: _287  and  _289
REMARK  111  A    between atoms: _289  and  _290
REMARK                            x       y       z     vdW  Elec       q    Type
REMARK                         _______ _______ _______ _____ _____    ______ ____
ROOT
ATOM      1  O   HOH     1      73.501  39.289  -6.925  0.00  0.00    +0.000 OA
ENDROOT
TORSDOF 0
REMARK  Name = ../refined-set-2016/4rvr/4rvr_pocket.pdb
REMARK  111 active torsions:
REMARK  status: ('A' for Active; 'I' for Inactive)
REMARK    1  A    between atoms: _1  and  _3
REMARK    2  A    between atoms: _3  and  _4
REMARK    3  A    between atoms: _7  and  _9
REMARK    4  A    between atoms: _9  and  _10
REMARK    5  A    between atoms: _9  and  _12
REMARK    6  A    between atoms: _12  and  _13
REMARK    7  A    between atoms: _24  and  _25
REMARK    8  A    between atoms: _30  and  _32
REMARK    9  A    between atoms: _32  and  _33
REMARK   10  A    between atoms: _32  and  _35
REMARK   11  A    between atoms: _35  and  _36
REMARK   12  A    between atoms: _42  and  _44
REMARK   13  A    between atoms: _44  and  _45
REMARK   14  A    between atoms: _44  and  _47
REMARK   15  A    between atoms: _47  and  _48
REMARK   16  A    between atoms: _51  and  _53
REMARK   17  A    between atoms: _53  and  _54
REMARK   18  A    between atoms: _53  and  _56
REMARK   19  A    between atoms: _56  and  _57
REMARK   20  A    between atoms: _61  and  _62
REMARK   21  A    between atoms: _67  and  _69
REMARK   22  A    between atoms: _69  and  _70
REMARK   23  A    between atoms: _69  and  _72
REMARK   24  A    between atoms: _75  and  _77
REMARK   25  A    between atoms: _77  and  _78
REMARK   26  A    between atoms: _77  and  _80
REMARK   27  A    between atoms: _80  and  _81
REMARK   28  A    between atoms: _86  and  _88
REMARK   29  A    between atoms: _88  and  _89
REMARK   30  A    between atoms: _88  and  _91
REMARK   31  A    between atoms: _91  and  _92
REMARK   32  A    between atoms: _95  and  _97
REMARK   33  A    between atoms: _97  and  _98
REMARK   34  A    between atoms: _97  and  _100
REMARK   35  A    between atoms: _100  and  _101
REMARK   36  A    between atoms: _101  and  _102
REMARK   37  A    between atoms: _102  and  _103
REMARK   38  A    between atoms: _103  and  _104
REMARK   39  A    between atoms: _108  and  _110
REMARK   40  A    between atoms: _110  and  _111
REMARK   41  A    between atoms: _110  and  _113
REMARK   42  A    between atoms: _113  and  _114
REMARK   43  A    between atoms: _117  and  _119
REMARK   44  A    between atoms: _119  and  _120
REMARK   45  A    between atoms: _119  and  _122
REMARK   46  A    between atoms: _126  and  _127
REMARK   47  A    between atoms: _132  and  _134
REMARK   48  A    between atoms: _134  and  _135
REMARK   49  A    between atoms: _134  and  _137
REMARK   50  A    between atoms: _137  and  _138
REMARK   51  A    between atoms: _143  and  _144
REMARK   52  A    between atoms: _146  and  _148
REMARK   53  A    between atoms: _148  and  _149
REMARK   54  A    between atoms: _148  and  _151
REMARK   55  A    between atoms: _151  and  _152
REMARK   56  A    between atoms: _155  and  _157
REMARK   57  A    between atoms: _157  and  _158
REMARK   58  A    between atoms: _157  and  _160
REMARK   59  A    between atoms: _160  and  _161
REMARK   60  A    between atoms: _161  and  _162
REMARK   61  A    between atoms: _164  and  _166
REMARK   62  A    between atoms: _166  and  _167
REMARK   63  A    between atoms: _166  and  _169
REMARK   64  A    between atoms: _169  and  _170
REMARK   65  A    between atoms: _173  and  _175
REMARK   66  A    between atoms: _175  and  _176
REMARK   67  A    between atoms: _175  and  _178
REMARK   68  A    between atoms: _178  and  _179
REMARK   69  A    between atoms: _185  and  _187
REMARK   70  A    between atoms: _187  and  _188
REMARK   71  A    between atoms: _187  and  _190
REMARK   72  A    between atoms: _190  and  _191
REMARK   73  A    between atoms: _193  and  _195
REMARK   74  A    between atoms: _195  and  _196
REMARK   75  A    between atoms: _195  and  _198
REMARK   76  A    between atoms: _201  and  _203
REMARK   77  A    between atoms: _203  and  _204
REMARK   78  A    between atoms: _203  and  _206
REMARK   79  A    between atoms: _206  and  _207
REMARK   80  A    between atoms: _213  and  _215
REMARK   81  A    between atoms: _215  and  _216
REMARK   82  A    between atoms: _215  and  _218
REMARK   83  A    between atoms: _218  and  _219
REMARK   84  A    between atoms: _224  and  _226
REMARK   85  A    between atoms: _226  and  _227
REMARK   86  A    between atoms: _226  and  _229
REMARK   87  A    between atoms: _231  and  _233
REMARK   88  A    between atoms: _233  and  _234
REMARK   89  A    between atoms: _233  and  _236
REMARK   90  A    between atoms: _236  and  _237
REMARK   91  A    between atoms: _237  and  _238
REMARK   92  A    between atoms: _241  and  _243
REMARK   93  A    between atoms: _243  and  _244
REMARK   94  A    between atoms: _243  and  _246
REMARK   95  A    between atoms: _246  and  _247
REMARK   96  A    between atoms: _250  and  _252
REMARK   97  A    between atoms: _252  and  _253
REMARK   98  A    between atoms: _252  and  _255
REMARK   99  A    between atoms: _255  and  _256
REMARK  100  A    between atoms: _262  and  _264
REMARK  101  A    between atoms: _264  and  _265
REMARK  102  A    between atoms: _264  and  _267
REMARK  103  A    between atoms: _267  and  _268
REMARK  104  A    between atoms: _273  and  _275
REMARK  105  A    between atoms: _275  and  _276
REMARK  106  A    between atoms: _275  and  _278
REMARK  107  A    between atoms: _278  and  _279
REMARK  108  A    between atoms: _282  and  _284
REMARK  109  A    between atoms: _284  and  _285
REMARK  110  A    between atoms: _287  and  _289
REMARK  111  A    between atoms: _289  and  _290
REMARK                            x       y       z     vdW  Elec       q    Type
REMARK                         _______ _______ _______ _____ _____    ______ ____
ROOT
ATOM      1  O   HOH     1      77.977  35.933   0.809  0.00  0.00    +0.000 OA
ENDROOT
TORSDOF 0
