REMARK  Name = ../refined-set-2016/3dx3/3dx3_pocket.pdb
REMARK  127 active torsions:
REMARK  status: ('A' for Active; 'I' for Inactive)
REMARK    1  A    between atoms: _1  and  _3
REMARK    2  A    between atoms: _14  and  _17
REMARK    3  A    between atoms: _17  and  _18
REMARK    4  A    between atoms: _25  and  _26
REMARK    5  A    between atoms: _33  and  _34
REMARK    6  A    between atoms: _39  and  _41
REMARK    7  A    between atoms: _41  and  _42
REMARK    8  A    between atoms: _44  and  _46
REMARK    9  A    between atoms: _46  and  _47
REMARK   10  A    between atoms: _46  and  _49
REMARK   11  A    between atoms: _49  and  _50
REMARK   12  A    between atoms: _60  and  _62
REMARK   13  A    between atoms: _62  and  _63
REMARK   14  A    between atoms: _62  and  _65
REMARK   15  A    between atoms: _65  and  _66
REMARK   16  A    between atoms: _69  and  _71
REMARK   17  A    between atoms: _71  and  _72
REMARK   18  A    between atoms: _71  and  _74
REMARK   19  A    between atoms: _74  and  _75
REMARK   20  A    between atoms: _80  and  _81
REMARK   21  A    between atoms: _83  and  _85
REMARK   22  A    between atoms: _85  and  _86
REMARK   23  A    between atoms: _85  and  _88
REMARK   24  A    between atoms: _88  and  _89
REMARK   25  A    between atoms: _89  and  _90
REMARK   26  A    between atoms: _93  and  _95
REMARK   27  A    between atoms: _95  and  _96
REMARK   28  A    between atoms: _95  and  _98
REMARK   29  A    between atoms: _98  and  _99
REMARK   30  A    between atoms: _99  and  _100
REMARK   31  A    between atoms: _102  and  _104
REMARK   32  A    between atoms: _104  and  _105
REMARK   33  A    between atoms: _104  and  _107
REMARK   34  A    between atoms: _107  and  _108
REMARK   35  A    between atoms: _111  and  _113
REMARK   36  A    between atoms: _113  and  _114
REMARK   37  A    between atoms: _113  and  _116
REMARK   38  A    between atoms: _116  and  _117
REMARK   39  A    between atoms: _117  and  _119
REMARK   40  A    between atoms: _119  and  ZN_352
REMARK   41  A    between atoms: _121  and  _122
REMARK   42  A    between atoms: _127  and  _129
REMARK   43  A    between atoms: _129  and  _130
REMARK   44  A    between atoms: _129  and  _132
REMARK   45  A    between atoms: _132  and  _133
REMARK   46  A    between atoms: _139  and  _141
REMARK   47  A    between atoms: _141  and  _142
REMARK   48  A    between atoms: _141  and  _144
REMARK   49  A    between atoms: _144  and  _145
REMARK   50  A    between atoms: _145  and  _146
REMARK   51  A    between atoms: _146  and  _147
REMARK   52  A    between atoms: _156  and  _158
REMARK   53  A    between atoms: _158  and  _159
REMARK   54  A    between atoms: _158  and  _161
REMARK   55  A    between atoms: _161  and  _162
REMARK   56  A    between atoms: _164  and  _166
REMARK   57  A    between atoms: _166  and  _167
REMARK   58  A    between atoms: _166  and  _169
REMARK   59  A    between atoms: _169  and  _170
REMARK   60  A    between atoms: _175  and  _176
REMARK   61  A    between atoms: _178  and  _180
REMARK   62  A    between atoms: _180  and  _181
REMARK   63  A    between atoms: _180  and  _183
REMARK   64  A    between atoms: _183  and  _184
REMARK   65  A    between atoms: _187  and  _189
REMARK   66  A    between atoms: _189  and  _190
REMARK   67  A    between atoms: _189  and  _192
REMARK   68  A    between atoms: _192  and  _193
REMARK   69  A    between atoms: _196  and  _198
REMARK   70  A    between atoms: _198  and  _199
REMARK   71  A    between atoms: _198  and  _201
REMARK   72  A    between atoms: _201  and  _202
REMARK   73  A    between atoms: _208  and  _210
REMARK   74  A    between atoms: _210  and  _211
REMARK   75  A    between atoms: _210  and  _213
REMARK   76  A    between atoms: _213  and  _214
REMARK   77  A    between atoms: _219  and  _220
REMARK   78  A    between atoms: _222  and  _224
REMARK   79  A    between atoms: _224  and  _225
REMARK   80  A    between atoms: _224  and  _227
REMARK   81  A    between atoms: _227  and  _228
REMARK   82  A    between atoms: _231  and  _233
REMARK   83  A    between atoms: _233  and  _234
REMARK   84  A    between atoms: _233  and  _236
REMARK   85  A    between atoms: _236  and  _237
REMARK   86  A    between atoms: _247  and  _249
REMARK   87  A    between atoms: _249  and  _250
REMARK   88  A    between atoms: _249  and  _252
REMARK   89  A    between atoms: _252  and  _253
REMARK   90  A    between atoms: _258  and  _260
REMARK   91  A    between atoms: _260  and  _261
REMARK   92  A    between atoms: _260  and  _263
REMARK   93  A    between atoms: _263  and  _264
REMARK   94  A    between atoms: _268  and  ZN_352
REMARK   95  A    between atoms: _269  and  _271
REMARK   96  A    between atoms: _271  and  _272
REMARK   97  A    between atoms: _271  and  _274
REMARK   98  A    between atoms: _274  and  _275
REMARK   99  A    between atoms: _278  and  _280
REMARK  100  A    between atoms: _280  and  _281
REMARK  101  A    between atoms: _283  and  _285
REMARK  102  A    between atoms: _285  and  _286
REMARK  103  A    between atoms: _285  and  _288
REMARK  104  A    between atoms: _288  and  _289
REMARK  105  A    between atoms: _292  and  _294
REMARK  106  A    between atoms: _294  and  _295
REMARK  107  A    between atoms: _294  and  _297
REMARK  108  A    between atoms: _297  and  _298
REMARK  109  A    between atoms: _301  and  _303
REMARK  110  A    between atoms: _303  and  _304
REMARK  111  A    between atoms: _307  and  _309
REMARK  112  A    between atoms: _309  and  _310
REMARK  113  A    between atoms: _309  and  _312
REMARK  114  A    between atoms: _312  and  _313
REMARK  115  A    between atoms: _318  and  _319
REMARK  116  A    between atoms: _321  and  _323
REMARK  117  A    between atoms: _323  and  _324
REMARK  118  A    between atoms: _323  and  _326
REMARK  119  A    between atoms: _326  and  _327
REMARK  120  A    between atoms: _327  and  _328
REMARK  121  A    between atoms: _328  and  _329
REMARK  122  A    between atoms: _338  and  _340
REMARK  123  A    between atoms: _340  and  _341
REMARK  124  A    between atoms: _343  and  _345
REMARK  125  A    between atoms: _345  and  _346
REMARK  126  A    between atoms: _345  and  _348
REMARK  127  A    between atoms: _348  and  _349
REMARK                            x       y       z     vdW  Elec       q    Type
REMARK                         _______ _______ _______ _____ _____    ______ ____
ROOT
ATOM      1  C   UNK A   1      36.839  61.631  13.385  0.00  0.00    +0.000 C 
ATOM      2  C   UNK A   1      37.496  63.002  13.304  0.00  0.00    +0.000 C 
ATOM      3  O   UNK A   1      36.948  63.979  13.824  0.00  0.00    +0.000 OA
ATOM      4  N   UNK A   2      38.673  63.069  12.681  0.00  0.00    +0.000 N 
ATOM      5  C   UNK A   2      39.444  64.303  12.649  0.00  0.00    +0.000 C 
ATOM      6  C   UNK A   2      39.614  64.765  11.217  0.00  0.00    +0.000 C 
ATOM      7  N   UNK A   3      38.814  65.733  10.821  0.00  0.00    +0.000 N 
ATOM      8  H   UNK A   3      38.106  66.114  11.480  0.00  0.00    +0.000 HD
ATOM      9  C   UNK A   3      38.907  66.284   9.459  0.00  0.00    +0.000 C 
ATOM     10  C   UNK A   3      37.738  67.216   9.242  0.00  0.00    +0.000 C 
ATOM     11  C   UNK A   3      36.431  66.476   9.256  0.00  0.00    +0.000 C 
ATOM     12  O   UNK A   3      35.592  66.734  10.147  0.00  0.00    +0.000 OA
ATOM     13  O   UNK A   3      36.280  65.579   8.406  0.00  0.00    +0.000 OA
ATOM     14 ZN   UNK A   1      34.573  64.323   7.935  0.00  0.00    +0.000 Zn
ATOM     15  N   UNK A   1      35.142  62.909   9.331  0.00  0.00    +0.000 N 
ATOM     16  C   UNK A   1      34.896  63.070  10.679  0.00  0.00    +0.000 A 
ATOM     17  C   UNK A   1      35.421  61.997  11.322  0.00  0.00    +0.000 A 
ATOM     18  N   UNK A   1      35.977  61.195  10.346  0.00  0.00    +0.000 NA
ATOM     19  C   UNK A   1      35.786  61.767   9.156  0.00  0.00    +0.000 A 
ATOM     20  O   UNK A   2      40.468  64.273  10.479  0.00  0.00    +0.000 OA
ATOM     21  H   UNK A   2      39.048  62.222  12.208  0.00  0.00    +0.000 HD
ATOM     22  C   UNK A   1      35.437  61.632  12.775  0.00  0.00    +0.000 C 
ENDROOT
BRANCH   9  23
ATOM     23  C   UNK A   3      40.163  67.117   9.277  0.00  0.00    +0.000 C 
ATOM     24  O   UNK A   3      40.376  68.064  10.030  0.00  0.00    +0.000 OA
ATOM     25  N   GLY A   4      41.012  66.761   8.290  0.00  0.00    +0.000 N 
ATOM     26  CA  GLY A   4      42.193  67.594   7.919  0.00  0.00    +0.000 C 
ATOM     27  CB  GLY A   4      43.041  66.641   7.067  0.00  0.00    +0.000 C 
ATOM     28  CG  GLY A   4      42.463  65.250   7.348  0.00  0.00    +0.000 C 
ATOM     29  CD  GLY A   4      41.006  65.481   7.558  0.00  0.00    +0.000 C 
BRANCH  26  30
ATOM     30  C   GLY A   4      41.788  68.867   7.168  0.00  0.00    +0.000 C 
ATOM     31  N   GLY A   5      41.007  69.698   7.856  0.00  0.00    +0.000 N 
ATOM     32  H   GLY A   5      40.806  69.466   8.850  0.00  0.00    +0.000 HD
ATOM     33  O   GLY A   4      42.143  69.065   6.003  0.00  0.00    +0.000 OA
BRANCH  31  34
ATOM     34  CA  GLY A   5      40.413  70.917   7.303  0.00  0.00    +0.000 C 
BRANCH  34  35
ATOM     35  C   GLY A   5      38.920  70.693   7.054  0.00  0.00    +0.000 C 
ATOM     36  N   TRP A   6      38.119  71.665   7.479  0.00  0.00    +0.000 N 
ATOM     37  H   TRP A   6      38.533  72.440   8.035  0.00  0.00    +0.000 HD
ATOM     38  O   GLY A   5      38.491  69.641   6.542  0.00  0.00    +0.000 OA
BRANCH  36  39
ATOM     39  CA  TRP A   6      36.687  71.698   7.203  0.00  0.00    +0.000 C 
BRANCH  39  40
ATOM     40  C   TRP A   6      36.169  73.074   7.606  0.00  0.00    +0.000 C 
ATOM     41  N   ILE A   7      35.833  73.247   8.880  0.00  0.00    +0.000 N 
ATOM     42  H   ILE A   7      35.851  72.421   9.511  0.00  0.00    +0.000 HD
ATOM     43  O   TRP A   6      36.115  73.979   6.768  0.00  0.00    +0.000 OA
BRANCH  41  44
ATOM     44  CA  ILE A   7      35.438  74.541   9.442  0.00  0.00    +0.000 C 
BRANCH  44  45
ATOM     45  C   ILE A   7      36.635  75.308   9.999  0.00  0.00    +0.000 C 
ATOM     46  O   ILE A   7      36.533  76.486  10.286  0.00  0.00    +0.000 OA
ENDBRANCH  44  45
BRANCH  44  47
ATOM     47  CB  ILE A   7      34.400  74.359  10.592  0.00  0.00    +0.000 C 
ATOM     48  CG2 ILE A   7      34.170  75.651  11.339  0.00  0.00    +0.000 C 
BRANCH  47  49
ATOM     49  CG1 ILE A   7      33.093  73.790  10.052  0.00  0.00    +0.000 C 
ATOM     50  CD1 ILE A   7      32.729  74.280   8.737  0.00  0.00    +0.000 C 
ENDBRANCH  47  49
ENDBRANCH  44  47
ENDBRANCH  41  44
ENDBRANCH  39  40
BRANCH  39  51
ATOM     51  CB  TRP A   6      35.912  70.566   7.914  0.00  0.00    +0.000 C 
BRANCH  51  52
ATOM     52  CG  TRP A   6      34.436  70.671   7.572  0.00  0.00    +0.000 A 
ATOM     53  CD2 TRP A   6      33.331  70.463   8.466  0.00  0.00    +0.000 A 
ATOM     54  CE3 TRP A   6      33.231  70.082   9.814  0.00  0.00    +0.000 A 
ATOM     55  CZ3 TRP A   6      31.942  69.940  10.370  0.00  0.00    +0.000 A 
ATOM     56  CH2 TRP A   6      30.789  70.168   9.610  0.00  0.00    +0.000 A 
ATOM     57  CZ2 TRP A   6      30.853  70.541   8.293  0.00  0.00    +0.000 A 
ATOM     58  CE2 TRP A   6      32.136  70.681   7.720  0.00  0.00    +0.000 A 
ATOM     59  NE1 TRP A   6      32.504  71.044   6.445  0.00  0.00    +0.000 N 
ATOM     60  HE1 TRP A   6      31.851  71.301   5.677  0.00  0.00    +0.000 HD
ATOM     61  CD1 TRP A   6      33.883  71.012   6.350  0.00  0.00    +0.000 A 
ENDBRANCH  51  52
ENDBRANCH  39  51
ENDBRANCH  36  39
ENDBRANCH  34  35
ENDBRANCH  31  34
ENDBRANCH  26  30
ENDBRANCH   9  23
BRANCH  14  62
ATOM     62  N   UNK A   1      35.433  63.681   6.123  0.00  0.00    +0.000 N 
ATOM     63  C   UNK A   1      36.453  62.857   5.929  0.00  0.00    +0.000 A 
ATOM     64  N   UNK A   1      36.636  62.707   4.624  0.00  0.00    +0.000 NA
ATOM     65  C   UNK A   1      35.683  63.447   3.948  0.00  0.00    +0.000 A 
ATOM     66  C   UNK A   1      34.931  64.065   4.899  0.00  0.00    +0.000 A 
BRANCH  65  67
ATOM     67  C   UNK A   1      35.597  63.511   2.450  0.00  0.00    +0.000 C 
BRANCH  67  68
ATOM     68  C   UNK A   1      36.425  64.646   1.825  0.00  0.00    +0.000 C 
BRANCH  68  69
ATOM     69  N   UNK A   1      37.824  64.481   2.181  0.00  0.00    +0.000 N 
ATOM     70  H   UNK A   1      38.076  63.883   2.994  0.00  0.00    +0.000 HD
ATOM     71  C   UNK A   1      38.788  65.079   1.488  0.00  0.00    +0.000 C 
ATOM     72  O   UNK A   1      38.565  65.854   0.532  0.00  0.00    +0.000 OA
BRANCH  71  73
ATOM     73  C   UNK A   1      40.227  64.824   1.984  0.00  0.00    +0.000 C 
BRANCH  73  74
ATOM     74  N   UNK A   1      41.164  64.883   0.858  0.00  0.00    +0.000 NA
ATOM     75  H   UNK A   1      42.039  65.436   0.958  0.00  0.00    +0.000 HD
ENDBRANCH  73  74
BRANCH  73  76
ATOM     76  C   UNK A   1      40.664  65.884   3.026  0.00  0.00    +0.000 C 
BRANCH  76  77
ATOM     77  C   UNK A   1      39.668  66.125   4.107  0.00  0.00    +0.000 A 
ATOM     78  N   UNK A   1      39.048  65.092   4.792  0.00  0.00    +0.000 NA
ATOM     79  C   UNK A   1      38.202  65.614   5.669  0.00  0.00    +0.000 A 
ATOM     80  N   UNK A   1      38.238  66.933   5.568  0.00  0.00    +0.000 NA
ATOM     81  C   UNK A   1      39.164  67.277   4.613  0.00  0.00    +0.000 A 
ENDBRANCH  76  77
ENDBRANCH  73  76
ENDBRANCH  71  73
ENDBRANCH  68  69
BRANCH  68  82
ATOM     82  C   UNK A   1      35.814  66.019   2.150  0.00  0.00    +0.000 C 
ATOM     83  N   UNK A   3      36.618  66.986   2.614  0.00  0.00    +0.000 N 
ATOM     84  H   UNK A   3      37.545  66.734   3.013  0.00  0.00    +0.000 HD
ATOM     85  O   UNK A   1      34.623  66.202   1.881  0.00  0.00    +0.000 OA
BRANCH  83  86
ATOM     86  C   UNK A   3      36.209  68.400   2.567  0.00  0.00    +0.000 C 
BRANCH  86  87
ATOM     87  C   UNK A   3      37.185  69.250   1.745  0.00  0.00    +0.000 C 
ATOM     88  O   UNK A   3      37.067  70.489   1.759  0.00  0.00    +0.000 OA
ATOM     89  N   GLY A   4      38.103  68.615   1.014  0.00  0.00    +0.000 N 
ATOM     90  H   GLY A   4      38.140  67.576   1.030  0.00  0.00    +0.000 HD
BRANCH  89  91
ATOM     91  CA  GLY A   4      39.051  69.351   0.196  0.00  0.00    +0.000 C 
BRANCH  91  92
ATOM     92  C   GLY A   4      38.514  69.413  -1.210  0.00  0.00    +0.000 C 
ATOM     93  O   GLY A   4      37.800  70.350  -1.567  0.00  0.00    +0.000 OA
ENDBRANCH  91  92
ENDBRANCH  89  91
ENDBRANCH  86  87
BRANCH  86  94
ATOM     94  C   UNK A   3      36.068  69.019   3.956  0.00  0.00    +0.000 C 
BRANCH  94  95
ATOM     95  C   UNK A   3      35.058  68.285   4.801  0.00  0.00    +0.000 C 
ATOM     96  O   UNK A   3      35.471  67.662   5.790  0.00  0.00    +0.000 OA
ATOM     97  O   UNK A   3      33.859  68.292   4.423  0.00  0.00    +0.000 OA
ENDBRANCH  94  95
ENDBRANCH  86  94
ENDBRANCH  83  86
ENDBRANCH  68  82
ENDBRANCH  67  68
ENDBRANCH  65  67
ENDBRANCH  14  62
BRANCH   1  98
ATOM     98  N   UNK A   1      36.758  61.227  14.793  0.00  0.00    +0.000 NA
ATOM     99  H   UNK A   1      35.886  61.400  15.333  0.00  0.00    +0.000 HD
ENDBRANCH   1  98
BRANCH   5 100
ATOM    100  C   UNK A   2      40.849  64.093  13.251  0.00  0.00    +0.000 C 
BRANCH 100 101
ATOM    101  C   UNK A   2      40.828  64.033  14.776  0.00  0.00    +0.000 C 
ATOM    102  O   UNK A   2      41.399  64.894  15.458  0.00  0.00    +0.000 OA
ATOM    103  N   UNK A   2      40.139  63.039  15.323  0.00  0.00    +0.000 N 
ATOM    104  H   UNK A   2      40.065  62.965  16.358  0.00  0.00    +0.000 HD
ATOM    105  H   UNK A   2      39.673  62.334  14.717  0.00  0.00    +0.000 HD
ENDBRANCH 100 101
ENDBRANCH   5 100
BRANCH  14 106
ATOM    106  O   UNK A   1      32.722  63.407   7.563  0.00  0.00    +0.000 OA
BRANCH 106 107
ATOM    107  C   UNK A   1      32.235  62.297   7.300  0.00  0.00    +0.000 C 
ATOM    108  O   UNK A   1      30.992  62.153   7.350  0.00  0.00    +0.000 OA
BRANCH 107 109
ATOM    109  C   UNK A   1      33.164  61.104   6.989  0.00  0.00    +0.000 C 
BRANCH 109 110
ATOM    110  C   UNK A   1      32.478  60.015   6.170  0.00  0.00    +0.000 C 
BRANCH 110 111
ATOM    111  C   UNK A   1      32.416  60.452   4.689  0.00  0.00    +0.000 C 
ATOM    112  O   UNK A   1      31.704  61.411   4.407  0.00  0.00    +0.000 OA
ATOM    113  N   UNK A   3      33.107  59.790   3.736  0.00  0.00    +0.000 N 
ATOM    114  C   UNK A   3      33.978  58.611   3.797  0.00  0.00    +0.000 C 
ATOM    115  C   UNK A   3      34.858  58.808   2.557  0.00  0.00    +0.000 C 
ATOM    116  C   UNK A   3      33.838  59.326   1.530  0.00  0.00    +0.000 C 
ATOM    117  C   UNK A   3      32.961  60.287   2.341  0.00  0.00    +0.000 C 
BRANCH 117 118
ATOM    118  C   UNK A   3      31.518  60.205   1.883  0.00  0.00    +0.000 C 
ATOM    119  O   UNK A   3      30.762  59.328   2.334  0.00  0.00    +0.000 OA
ATOM    120  N   GLY A   4      31.123  61.108   0.998  0.00  0.00    +0.000 N 
ATOM    121  H   GLY A   4      31.822  61.665   0.467  0.00  0.00    +0.000 HD
BRANCH 120 122
ATOM    122  CA  GLY A   4      29.674  61.314   0.775  0.00  0.00    +0.000 C 
BRANCH 122 123
ATOM    123  C   GLY A   4      29.190  60.395  -0.357  0.00  0.00    +0.000 C 
ATOM    124  O   GLY A   4      28.944  60.812  -1.497  0.00  0.00    +0.000 OA
ENDBRANCH 122 123
BRANCH 122 125
ATOM    125  CB  GLY A   4      29.376  62.786   0.490  0.00  0.00    +0.000 C 
BRANCH 125 126
ATOM    126  CG  GLY A   4      30.184  63.757   1.319  0.00  0.00    +0.000 A 
ATOM    127  CD2 GLY A   4      30.421  63.527   2.676  0.00  0.00    +0.000 A 
ATOM    128  CE2 GLY A   4      31.170  64.439   3.429  0.00  0.00    +0.000 A 
ATOM    129  CZ  GLY A   4      31.684  65.579   2.806  0.00  0.00    +0.000 A 
ATOM    130  CE1 GLY A   4      31.457  65.807   1.477  0.00  0.00    +0.000 A 
ATOM    131  CD1 GLY A   4      30.706  64.915   0.727  0.00  0.00    +0.000 A 
ENDBRANCH 125 126
ENDBRANCH 122 125
ENDBRANCH 120 122
ENDBRANCH 117 118
ENDBRANCH 110 111
BRANCH 110 132
ATOM    132  N   UNK A   1      32.998  58.702   6.534  0.00  0.00    +0.000 N 
ATOM    133  C   UNK A   1      32.232  57.887   7.269  0.00  0.00    +0.000 C 
ATOM    134  O   UNK A   1      31.031  58.118   7.517  0.00  0.00    +0.000 OA
ATOM    135  H   UNK A   1      33.946  58.405   6.228  0.00  0.00    +0.000 HD
BRANCH 133 136
ATOM    136  C   UNK A   1      32.861  56.614   7.793  0.00  0.00    +0.000 C 
BRANCH 136 137
ATOM    137  N   UNK A   1      34.147  56.292   7.180  0.00  0.00    +0.000 NA
ATOM    138  H   UNK A   1      35.027  56.623   7.624  0.00  0.00    +0.000 HD
ENDBRANCH 136 137
BRANCH 136 139
ATOM    139  C   UNK A   1      32.948  56.678   9.329  0.00  0.00    +0.000 C 
ATOM    140  C   UNK A   1      33.221  55.257   9.856  0.00  0.00    +0.000 C 
BRANCH 139 141
ATOM    141  C   UNK A   1      34.041  57.656   9.808  0.00  0.00    +0.000 C 
ATOM    142  C   UNK A   1      34.014  58.013  11.279  0.00  0.00    +0.000 C 
ENDBRANCH 139 141
ENDBRANCH 136 139
ENDBRANCH 133 136
ENDBRANCH 110 132
ENDBRANCH 109 110
ENDBRANCH 107 109
ENDBRANCH 106 107
ENDBRANCH  14 106
TORSDOF 45
REMARK  Name = ../refined-set-2016/3dx3/3dx3_pocket.pdb
REMARK  127 active torsions:
REMARK  status: ('A' for Active; 'I' for Inactive)
REMARK    1  A    between atoms: _1  and  _3
REMARK    2  A    between atoms: _14  and  _17
REMARK    3  A    between atoms: _17  and  _18
REMARK    4  A    between atoms: _25  and  _26
REMARK    5  A    between atoms: _33  and  _34
REMARK    6  A    between atoms: _39  and  _41
REMARK    7  A    between atoms: _41  and  _42
REMARK    8  A    between atoms: _44  and  _46
REMARK    9  A    between atoms: _46  and  _47
REMARK   10  A    between atoms: _46  and  _49
REMARK   11  A    between atoms: _49  and  _50
REMARK   12  A    between atoms: _60  and  _62
REMARK   13  A    between atoms: _62  and  _63
REMARK   14  A    between atoms: _62  and  _65
REMARK   15  A    between atoms: _65  and  _66
REMARK   16  A    between atoms: _69  and  _71
REMARK   17  A    between atoms: _71  and  _72
REMARK   18  A    between atoms: _71  and  _74
REMARK   19  A    between atoms: _74  and  _75
REMARK   20  A    between atoms: _80  and  _81
REMARK   21  A    between atoms: _83  and  _85
REMARK   22  A    between atoms: _85  and  _86
REMARK   23  A    between atoms: _85  and  _88
REMARK   24  A    between atoms: _88  and  _89
REMARK   25  A    between atoms: _89  and  _90
REMARK   26  A    between atoms: _93  and  _95
REMARK   27  A    between atoms: _95  and  _96
REMARK   28  A    between atoms: _95  and  _98
REMARK   29  A    between atoms: _98  and  _99
REMARK   30  A    between atoms: _99  and  _100
REMARK   31  A    between atoms: _102  and  _104
REMARK   32  A    between atoms: _104  and  _105
REMARK   33  A    between atoms: _104  and  _107
REMARK   34  A    between atoms: _107  and  _108
REMARK   35  A    between atoms: _111  and  _113
REMARK   36  A    between atoms: _113  and  _114
REMARK   37  A    between atoms: _113  and  _116
REMARK   38  A    between atoms: _116  and  _117
REMARK   39  A    between atoms: _117  and  _119
REMARK   40  A    between atoms: _119  and  ZN_352
REMARK   41  A    between atoms: _121  and  _122
REMARK   42  A    between atoms: _127  and  _129
REMARK   43  A    between atoms: _129  and  _130
REMARK   44  A    between atoms: _129  and  _132
REMARK   45  A    between atoms: _132  and  _133
REMARK   46  A    between atoms: _139  and  _141
REMARK   47  A    between atoms: _141  and  _142
REMARK   48  A    between atoms: _141  and  _144
REMARK   49  A    between atoms: _144  and  _145
REMARK   50  A    between atoms: _145  and  _146
REMARK   51  A    between atoms: _146  and  _147
REMARK   52  A    between atoms: _156  and  _158
REMARK   53  A    between atoms: _158  and  _159
REMARK   54  A    between atoms: _158  and  _161
REMARK   55  A    between atoms: _161  and  _162
REMARK   56  A    between atoms: _164  and  _166
REMARK   57  A    between atoms: _166  and  _167
REMARK   58  A    between atoms: _166  and  _169
REMARK   59  A    between atoms: _169  and  _170
REMARK   60  A    between atoms: _175  and  _176
REMARK   61  A    between atoms: _178  and  _180
REMARK   62  A    between atoms: _180  and  _181
REMARK   63  A    between atoms: _180  and  _183
REMARK   64  A    between atoms: _183  and  _184
REMARK   65  A    between atoms: _187  and  _189
REMARK   66  A    between atoms: _189  and  _190
REMARK   67  A    between atoms: _189  and  _192
REMARK   68  A    between atoms: _192  and  _193
REMARK   69  A    between atoms: _196  and  _198
REMARK   70  A    between atoms: _198  and  _199
REMARK   71  A    between atoms: _198  and  _201
REMARK   72  A    between atoms: _201  and  _202
REMARK   73  A    between atoms: _208  and  _210
REMARK   74  A    between atoms: _210  and  _211
REMARK   75  A    between atoms: _210  and  _213
REMARK   76  A    between atoms: _213  and  _214
REMARK   77  A    between atoms: _219  and  _220
REMARK   78  A    between atoms: _222  and  _224
REMARK   79  A    between atoms: _224  and  _225
REMARK   80  A    between atoms: _224  and  _227
REMARK   81  A    between atoms: _227  and  _228
REMARK   82  A    between atoms: _231  and  _233
REMARK   83  A    between atoms: _233  and  _234
REMARK   84  A    between atoms: _233  and  _236
REMARK   85  A    between atoms: _236  and  _237
REMARK   86  A    between atoms: _247  and  _249
REMARK   87  A    between atoms: _249  and  _250
REMARK   88  A    between atoms: _249  and  _252
REMARK   89  A    between atoms: _252  and  _253
REMARK   90  A    between atoms: _258  and  _260
REMARK   91  A    between atoms: _260  and  _261
REMARK   92  A    between atoms: _260  and  _263
REMARK   93  A    between atoms: _263  and  _264
REMARK   94  A    between atoms: _268  and  ZN_352
REMARK   95  A    between atoms: _269  and  _271
REMARK   96  A    between atoms: _271  and  _272
REMARK   97  A    between atoms: _271  and  _274
REMARK   98  A    between atoms: _274  and  _275
REMARK   99  A    between atoms: _278  and  _280
REMARK  100  A    between atoms: _280  and  _281
REMARK  101  A    between atoms: _283  and  _285
REMARK  102  A    between atoms: _285  and  _286
REMARK  103  A    between atoms: _285  and  _288
REMARK  104  A    between atoms: _288  and  _289
REMARK  105  A    between atoms: _292  and  _294
REMARK  106  A    between atoms: _294  and  _295
REMARK  107  A    between atoms: _294  and  _297
REMARK  108  A    between atoms: _297  and  _298
REMARK  109  A    between atoms: _301  and  _303
REMARK  110  A    between atoms: _303  and  _304
REMARK  111  A    between atoms: _307  and  _309
REMARK  112  A    between atoms: _309  and  _310
REMARK  113  A    between atoms: _309  and  _312
REMARK  114  A    between atoms: _312  and  _313
REMARK  115  A    between atoms: _318  and  _319
REMARK  116  A    between atoms: _321  and  _323
REMARK  117  A    between atoms: _323  and  _324
REMARK  118  A    between atoms: _323  and  _326
REMARK  119  A    between atoms: _326  and  _327
REMARK  120  A    between atoms: _327  and  _328
REMARK  121  A    between atoms: _328  and  _329
REMARK  122  A    between atoms: _338  and  _340
REMARK  123  A    between atoms: _340  and  _341
REMARK  124  A    between atoms: _343  and  _345
REMARK  125  A    between atoms: _345  and  _346
REMARK  126  A    between atoms: _345  and  _348
REMARK  127  A    between atoms: _348  and  _349
REMARK                            x       y       z     vdW  Elec       q    Type
REMARK                         _______ _______ _______ _____ _____    ______ ____
ROOT
ATOM      1  CG  TYR A   1      40.378  71.154  12.708  0.00  0.00    -0.020 A 
ATOM      2  CD2 TYR A   1      39.341  71.414  13.607  0.00  0.00    -0.001 A 
ATOM      3  CE2 TYR A   1      38.024  71.519  13.149  0.00  0.00    +0.036 A 
ATOM      4  CZ  TYR A   1      37.750  71.346  11.796  0.00  0.00    +0.134 A 
ATOM      5  CE1 TYR A   1      38.772  71.091  10.920  0.00  0.00    +0.036 A 
ATOM      6  CD1 TYR A   1      40.064  71.018  11.369  0.00  0.00    -0.001 A 
ENDROOT
BRANCH   4   7
ATOM      7  OH  TYR A   1      36.474  71.426  11.309  0.00  0.00    -0.506 OA
ATOM      8  HH  TYR A   1      35.849  71.613  12.054  0.00  0.00    +0.292 HD
ENDBRANCH   4   7
BRANCH   1   9
ATOM      9  CB  TYR A   1      41.796  70.958  13.149  0.00  0.00    +0.051 C 
BRANCH   9  10
ATOM     10  CA  TYR A   1      42.380  71.956  14.133  0.00  0.00    +0.137 C 
BRANCH  10  11
ATOM     11  N   TYR A   1      42.885  73.131  13.428  0.00  0.00    -0.239 NA
ATOM     12  H   TYR A   1      42.836  73.186  12.391  0.00  0.00    +0.142 HD
ENDBRANCH  10  11
BRANCH  10  13
ATOM     13  C   TYR A   1      43.486  71.238  14.891  0.00  0.00    +0.224 C 
ATOM     14  O   TYR A   1      43.256  70.731  15.985  0.00  0.00    -0.287 OA
ENDBRANCH  10  13
ENDBRANCH   9  10
ENDBRANCH   1   9
TORSDOF 5
REMARK  Name = ../refined-set-2016/3dx3/3dx3_pocket.pdb
REMARK  127 active torsions:
REMARK  status: ('A' for Active; 'I' for Inactive)
REMARK    1  A    between atoms: _1  and  _3
REMARK    2  A    between atoms: _14  and  _17
REMARK    3  A    between atoms: _17  and  _18
REMARK    4  A    between atoms: _25  and  _26
REMARK    5  A    between atoms: _33  and  _34
REMARK    6  A    between atoms: _39  and  _41
REMARK    7  A    between atoms: _41  and  _42
REMARK    8  A    between atoms: _44  and  _46
REMARK    9  A    between atoms: _46  and  _47
REMARK   10  A    between atoms: _46  and  _49
REMARK   11  A    between atoms: _49  and  _50
REMARK   12  A    between atoms: _60  and  _62
REMARK   13  A    between atoms: _62  and  _63
REMARK   14  A    between atoms: _62  and  _65
REMARK   15  A    between atoms: _65  and  _66
REMARK   16  A    between atoms: _69  and  _71
REMARK   17  A    between atoms: _71  and  _72
REMARK   18  A    between atoms: _71  and  _74
REMARK   19  A    between atoms: _74  and  _75
REMARK   20  A    between atoms: _80  and  _81
REMARK   21  A    between atoms: _83  and  _85
REMARK   22  A    between atoms: _85  and  _86
REMARK   23  A    between atoms: _85  and  _88
REMARK   24  A    between atoms: _88  and  _89
REMARK   25  A    between atoms: _89  and  _90
REMARK   26  A    between atoms: _93  and  _95
REMARK   27  A    between atoms: _95  and  _96
REMARK   28  A    between atoms: _95  and  _98
REMARK   29  A    between atoms: _98  and  _99
REMARK   30  A    between atoms: _99  and  _100
REMARK   31  A    between atoms: _102  and  _104
REMARK   32  A    between atoms: _104  and  _105
REMARK   33  A    between atoms: _104  and  _107
REMARK   34  A    between atoms: _107  and  _108
REMARK   35  A    between atoms: _111  and  _113
REMARK   36  A    between atoms: _113  and  _114
REMARK   37  A    between atoms: _113  and  _116
REMARK   38  A    between atoms: _116  and  _117
REMARK   39  A    between atoms: _117  and  _119
REMARK   40  A    between atoms: _119  and  ZN_352
REMARK   41  A    between atoms: _121  and  _122
REMARK   42  A    between atoms: _127  and  _129
REMARK   43  A    between atoms: _129  and  _130
REMARK   44  A    between atoms: _129  and  _132
REMARK   45  A    between atoms: _132  and  _133
REMARK   46  A    between atoms: _139  and  _141
REMARK   47  A    between atoms: _141  and  _142
REMARK   48  A    between atoms: _141  and  _144
REMARK   49  A    between atoms: _144  and  _145
REMARK   50  A    between atoms: _145  and  _146
REMARK   51  A    between atoms: _146  and  _147
REMARK   52  A    between atoms: _156  and  _158
REMARK   53  A    between atoms: _158  and  _159
REMARK   54  A    between atoms: _158  and  _161
REMARK   55  A    between atoms: _161  and  _162
REMARK   56  A    between atoms: _164  and  _166
REMARK   57  A    between atoms: _166  and  _167
REMARK   58  A    between atoms: _166  and  _169
REMARK   59  A    between atoms: _169  and  _170
REMARK   60  A    between atoms: _175  and  _176
REMARK   61  A    between atoms: _178  and  _180
REMARK   62  A    between atoms: _180  and  _181
REMARK   63  A    between atoms: _180  and  _183
REMARK   64  A    between atoms: _183  and  _184
REMARK   65  A    between atoms: _187  and  _189
REMARK   66  A    between atoms: _189  and  _190
REMARK   67  A    between atoms: _189  and  _192
REMARK   68  A    between atoms: _192  and  _193
REMARK   69  A    between atoms: _196  and  _198
REMARK   70  A    between atoms: _198  and  _199
REMARK   71  A    between atoms: _198  and  _201
REMARK   72  A    between atoms: _201  and  _202
REMARK   73  A    between atoms: _208  and  _210
REMARK   74  A    between atoms: _210  and  _211
REMARK   75  A    between atoms: _210  and  _213
REMARK   76  A    between atoms: _213  and  _214
REMARK   77  A    between atoms: _219  and  _220
REMARK   78  A    between atoms: _222  and  _224
REMARK   79  A    between atoms: _224  and  _225
REMARK   80  A    between atoms: _224  and  _227
REMARK   81  A    between atoms: _227  and  _228
REMARK   82  A    between atoms: _231  and  _233
REMARK   83  A    between atoms: _233  and  _234
REMARK   84  A    between atoms: _233  and  _236
REMARK   85  A    between atoms: _236  and  _237
REMARK   86  A    between atoms: _247  and  _249
REMARK   87  A    between atoms: _249  and  _250
REMARK   88  A    between atoms: _249  and  _252
REMARK   89  A    between atoms: _252  and  _253
REMARK   90  A    between atoms: _258  and  _260
REMARK   91  A    between atoms: _260  and  _261
REMARK   92  A    between atoms: _260  and  _263
REMARK   93  A    between atoms: _263  and  _264
REMARK   94  A    between atoms: _268  and  ZN_352
REMARK   95  A    between atoms: _269  and  _271
REMARK   96  A    between atoms: _271  and  _272
REMARK   97  A    between atoms: _271  and  _274
REMARK   98  A    between atoms: _274  and  _275
REMARK   99  A    between atoms: _278  and  _280
REMARK  100  A    between atoms: _280  and  _281
REMARK  101  A    between atoms: _283  and  _285
REMARK  102  A    between atoms: _285  and  _286
REMARK  103  A    between atoms: _285  and  _288
REMARK  104  A    between atoms: _288  and  _289
REMARK  105  A    between atoms: _292  and  _294
REMARK  106  A    between atoms: _294  and  _295
REMARK  107  A    between atoms: _294  and  _297
REMARK  108  A    between atoms: _297  and  _298
REMARK  109  A    between atoms: _301  and  _303
REMARK  110  A    between atoms: _303  and  _304
REMARK  111  A    between atoms: _307  and  _309
REMARK  112  A    between atoms: _309  and  _310
REMARK  113  A    between atoms: _309  and  _312
REMARK  114  A    between atoms: _312  and  _313
REMARK  115  A    between atoms: _318  and  _319
REMARK  116  A    between atoms: _321  and  _323
REMARK  117  A    between atoms: _323  and  _324
REMARK  118  A    between atoms: _323  and  _326
REMARK  119  A    between atoms: _326  and  _327
REMARK  120  A    between atoms: _327  and  _328
REMARK  121  A    between atoms: _328  and  _329
REMARK  122  A    between atoms: _338  and  _340
REMARK  123  A    between atoms: _340  and  _341
REMARK  124  A    between atoms: _343  and  _345
REMARK  125  A    between atoms: _345  and  _346
REMARK  126  A    between atoms: _345  and  _348
REMARK  127  A    between atoms: _348  and  _349
REMARK                            x       y       z     vdW  Elec       q    Type
REMARK                         _______ _______ _______ _____ _____    ______ ____
ROOT
ATOM      1  CA  GLU A   1      44.205  60.321   9.354  0.00  0.00    +0.134 C 
ENDROOT
BRANCH   1   2
ATOM      2  N   GLU A   1      43.624  59.234  10.182  0.00  0.00    -0.239 NA
ATOM      3  H   GLU A   1      43.314  59.444  11.152  0.00  0.00    +0.142 HD
ENDBRANCH   1   2
BRANCH   1   4
ATOM      4  C   GLU A   1      45.693  60.473   9.659  0.00  0.00    +0.224 C 
ATOM      5  O   GLU A   1      46.078  61.077  10.683  0.00  0.00    -0.287 OA
ENDBRANCH   1   4
BRANCH   1   6
ATOM      6  CB  GLU A   1      43.468  61.647   9.597  0.00  0.00    +0.037 C 
BRANCH   6   7
ATOM      7  CG  GLU A   1      41.956  61.579   9.324  0.00  0.00    +0.116 C 
BRANCH   7   8
ATOM      8  CD  GLU A   1      41.111  61.139  10.529  0.00  0.00    +0.365 C 
ATOM      9  OE2 GLU A   1      41.696  60.858  11.604  0.00  0.00    -0.246 OA
ATOM     10  OE1 GLU A   1      39.861  61.091  10.405  0.00  0.00    -0.246 OA
ENDBRANCH   7   8
ENDBRANCH   6   7
ENDBRANCH   1   6
TORSDOF 5
REMARK  Name = ../refined-set-2016/3dx3/3dx3_pocket.pdb
REMARK  127 active torsions:
REMARK  status: ('A' for Active; 'I' for Inactive)
REMARK    1  A    between atoms: _1  and  _3
REMARK    2  A    between atoms: _14  and  _17
REMARK    3  A    between atoms: _17  and  _18
REMARK    4  A    between atoms: _25  and  _26
REMARK    5  A    between atoms: _33  and  _34
REMARK    6  A    between atoms: _39  and  _41
REMARK    7  A    between atoms: _41  and  _42
REMARK    8  A    between atoms: _44  and  _46
REMARK    9  A    between atoms: _46  and  _47
REMARK   10  A    between atoms: _46  and  _49
REMARK   11  A    between atoms: _49  and  _50
REMARK   12  A    between atoms: _60  and  _62
REMARK   13  A    between atoms: _62  and  _63
REMARK   14  A    between atoms: _62  and  _65
REMARK   15  A    between atoms: _65  and  _66
REMARK   16  A    between atoms: _69  and  _71
REMARK   17  A    between atoms: _71  and  _72
REMARK   18  A    between atoms: _71  and  _74
REMARK   19  A    between atoms: _74  and  _75
REMARK   20  A    between atoms: _80  and  _81
REMARK   21  A    between atoms: _83  and  _85
REMARK   22  A    between atoms: _85  and  _86
REMARK   23  A    between atoms: _85  and  _88
REMARK   24  A    between atoms: _88  and  _89
REMARK   25  A    between atoms: _89  and  _90
REMARK   26  A    between atoms: _93  and  _95
REMARK   27  A    between atoms: _95  and  _96
REMARK   28  A    between atoms: _95  and  _98
REMARK   29  A    between atoms: _98  and  _99
REMARK   30  A    between atoms: _99  and  _100
REMARK   31  A    between atoms: _102  and  _104
REMARK   32  A    between atoms: _104  and  _105
REMARK   33  A    between atoms: _104  and  _107
REMARK   34  A    between atoms: _107  and  _108
REMARK   35  A    between atoms: _111  and  _113
REMARK   36  A    between atoms: _113  and  _114
REMARK   37  A    between atoms: _113  and  _116
REMARK   38  A    between atoms: _116  and  _117
REMARK   39  A    between atoms: _117  and  _119
REMARK   40  A    between atoms: _119  and  ZN_352
REMARK   41  A    between atoms: _121  and  _122
REMARK   42  A    between atoms: _127  and  _129
REMARK   43  A    between atoms: _129  and  _130
REMARK   44  A    between atoms: _129  and  _132
REMARK   45  A    between atoms: _132  and  _133
REMARK   46  A    between atoms: _139  and  _141
REMARK   47  A    between atoms: _141  and  _142
REMARK   48  A    between atoms: _141  and  _144
REMARK   49  A    between atoms: _144  and  _145
REMARK   50  A    between atoms: _145  and  _146
REMARK   51  A    between atoms: _146  and  _147
REMARK   52  A    between atoms: _156  and  _158
REMARK   53  A    between atoms: _158  and  _159
REMARK   54  A    between atoms: _158  and  _161
REMARK   55  A    between atoms: _161  and  _162
REMARK   56  A    between atoms: _164  and  _166
REMARK   57  A    between atoms: _166  and  _167
REMARK   58  A    between atoms: _166  and  _169
REMARK   59  A    between atoms: _169  and  _170
REMARK   60  A    between atoms: _175  and  _176
REMARK   61  A    between atoms: _178  and  _180
REMARK   62  A    between atoms: _180  and  _181
REMARK   63  A    between atoms: _180  and  _183
REMARK   64  A    between atoms: _183  and  _184
REMARK   65  A    between atoms: _187  and  _189
REMARK   66  A    between atoms: _189  and  _190
REMARK   67  A    between atoms: _189  and  _192
REMARK   68  A    between atoms: _192  and  _193
REMARK   69  A    between atoms: _196  and  _198
REMARK   70  A    between atoms: _198  and  _199
REMARK   71  A    between atoms: _198  and  _201
REMARK   72  A    between atoms: _201  and  _202
REMARK   73  A    between atoms: _208  and  _210
REMARK   74  A    between atoms: _210  and  _211
REMARK   75  A    between atoms: _210  and  _213
REMARK   76  A    between atoms: _213  and  _214
REMARK   77  A    between atoms: _219  and  _220
REMARK   78  A    between atoms: _222  and  _224
REMARK   79  A    between atoms: _224  and  _225
REMARK   80  A    between atoms: _224  and  _227
REMARK   81  A    between atoms: _227  and  _228
REMARK   82  A    between atoms: _231  and  _233
REMARK   83  A    between atoms: _233  and  _234
REMARK   84  A    between atoms: _233  and  _236
REMARK   85  A    between atoms: _236  and  _237
REMARK   86  A    between atoms: _247  and  _249
REMARK   87  A    between atoms: _249  and  _250
REMARK   88  A    between atoms: _249  and  _252
REMARK   89  A    between atoms: _252  and  _253
REMARK   90  A    between atoms: _258  and  _260
REMARK   91  A    between atoms: _260  and  _261
REMARK   92  A    between atoms: _260  and  _263
REMARK   93  A    between atoms: _263  and  _264
REMARK   94  A    between atoms: _268  and  ZN_352
REMARK   95  A    between atoms: _269  and  _271
REMARK   96  A    between atoms: _271  and  _272
REMARK   97  A    between atoms: _271  and  _274
REMARK   98  A    between atoms: _274  and  _275
REMARK   99  A    between atoms: _278  and  _280
REMARK  100  A    between atoms: _280  and  _281
REMARK  101  A    between atoms: _283  and  _285
REMARK  102  A    between atoms: _285  and  _286
REMARK  103  A    between atoms: _285  and  _288
REMARK  104  A    between atoms: _288  and  _289
REMARK  105  A    between atoms: _292  and  _294
REMARK  106  A    between atoms: _294  and  _295
REMARK  107  A    between atoms: _294  and  _297
REMARK  108  A    between atoms: _297  and  _298
REMARK  109  A    between atoms: _301  and  _303
REMARK  110  A    between atoms: _303  and  _304
REMARK  111  A    between atoms: _307  and  _309
REMARK  112  A    between atoms: _309  and  _310
REMARK  113  A    between atoms: _309  and  _312
REMARK  114  A    between atoms: _312  and  _313
REMARK  115  A    between atoms: _318  and  _319
REMARK  116  A    between atoms: _321  and  _323
REMARK  117  A    between atoms: _323  and  _324
REMARK  118  A    between atoms: _323  and  _326
REMARK  119  A    between atoms: _326  and  _327
REMARK  120  A    between atoms: _327  and  _328
REMARK  121  A    between atoms: _328  and  _329
REMARK  122  A    between atoms: _338  and  _340
REMARK  123  A    between atoms: _340  and  _341
REMARK  124  A    between atoms: _343  and  _345
REMARK  125  A    between atoms: _345  and  _346
REMARK  126  A    between atoms: _345  and  _348
REMARK  127  A    between atoms: _348  and  _349
REMARK                            x       y       z     vdW  Elec       q    Type
REMARK                         _______ _______ _______ _____ _____    ______ ____
ROOT
ATOM      1  CA  MET A   1      40.038  59.711   4.470  0.00  0.00    +0.134 C 
ENDROOT
BRANCH   1   2
ATOM      2  N   MET A   1      41.151  60.584   4.834  0.00  0.00    -0.239 NA
ATOM      3  H   MET A   1      40.944  61.484   5.312  0.00  0.00    +0.142 HD
ENDBRANCH   1   2
BRANCH   1   4
ATOM      4  C   MET A   1      39.430  60.373   3.229  0.00  0.00    +0.224 C 
ATOM      5  O   MET A   1      38.695  61.357   3.338  0.00  0.00    -0.287 OA
ENDBRANCH   1   4
BRANCH   1   6
ATOM      6  CB  MET A   1      39.038  59.668   5.630  0.00  0.00    +0.037 C 
BRANCH   6   7
ATOM      7  CG  MET A   1      37.780  58.880   5.323  0.00  0.00    +0.059 C 
BRANCH   7   8
ATOM      8  SD  MET A   1      36.579  58.989   6.677  0.00  0.00    -0.139 S 
ATOM      9  CE  MET A   1      37.552  58.249   8.020  0.00  0.00    +0.069 C 
ENDBRANCH   7   8
ENDBRANCH   6   7
ENDBRANCH   1   6
TORSDOF 5
REMARK  Name = ../refined-set-2016/3dx3/3dx3_pocket.pdb
REMARK  127 active torsions:
REMARK  status: ('A' for Active; 'I' for Inactive)
REMARK    1  A    between atoms: _1  and  _3
REMARK    2  A    between atoms: _14  and  _17
REMARK    3  A    between atoms: _17  and  _18
REMARK    4  A    between atoms: _25  and  _26
REMARK    5  A    between atoms: _33  and  _34
REMARK    6  A    between atoms: _39  and  _41
REMARK    7  A    between atoms: _41  and  _42
REMARK    8  A    between atoms: _44  and  _46
REMARK    9  A    between atoms: _46  and  _47
REMARK   10  A    between atoms: _46  and  _49
REMARK   11  A    between atoms: _49  and  _50
REMARK   12  A    between atoms: _60  and  _62
REMARK   13  A    between atoms: _62  and  _63
REMARK   14  A    between atoms: _62  and  _65
REMARK   15  A    between atoms: _65  and  _66
REMARK   16  A    between atoms: _69  and  _71
REMARK   17  A    between atoms: _71  and  _72
REMARK   18  A    between atoms: _71  and  _74
REMARK   19  A    between atoms: _74  and  _75
REMARK   20  A    between atoms: _80  and  _81
REMARK   21  A    between atoms: _83  and  _85
REMARK   22  A    between atoms: _85  and  _86
REMARK   23  A    between atoms: _85  and  _88
REMARK   24  A    between atoms: _88  and  _89
REMARK   25  A    between atoms: _89  and  _90
REMARK   26  A    between atoms: _93  and  _95
REMARK   27  A    between atoms: _95  and  _96
REMARK   28  A    between atoms: _95  and  _98
REMARK   29  A    between atoms: _98  and  _99
REMARK   30  A    between atoms: _99  and  _100
REMARK   31  A    between atoms: _102  and  _104
REMARK   32  A    between atoms: _104  and  _105
REMARK   33  A    between atoms: _104  and  _107
REMARK   34  A    between atoms: _107  and  _108
REMARK   35  A    between atoms: _111  and  _113
REMARK   36  A    between atoms: _113  and  _114
REMARK   37  A    between atoms: _113  and  _116
REMARK   38  A    between atoms: _116  and  _117
REMARK   39  A    between atoms: _117  and  _119
REMARK   40  A    between atoms: _119  and  ZN_352
REMARK   41  A    between atoms: _121  and  _122
REMARK   42  A    between atoms: _127  and  _129
REMARK   43  A    between atoms: _129  and  _130
REMARK   44  A    between atoms: _129  and  _132
REMARK   45  A    between atoms: _132  and  _133
REMARK   46  A    between atoms: _139  and  _141
REMARK   47  A    between atoms: _141  and  _142
REMARK   48  A    between atoms: _141  and  _144
REMARK   49  A    between atoms: _144  and  _145
REMARK   50  A    between atoms: _145  and  _146
REMARK   51  A    between atoms: _146  and  _147
REMARK   52  A    between atoms: _156  and  _158
REMARK   53  A    between atoms: _158  and  _159
REMARK   54  A    between atoms: _158  and  _161
REMARK   55  A    between atoms: _161  and  _162
REMARK   56  A    between atoms: _164  and  _166
REMARK   57  A    between atoms: _166  and  _167
REMARK   58  A    between atoms: _166  and  _169
REMARK   59  A    between atoms: _169  and  _170
REMARK   60  A    between atoms: _175  and  _176
REMARK   61  A    between atoms: _178  and  _180
REMARK   62  A    between atoms: _180  and  _181
REMARK   63  A    between atoms: _180  and  _183
REMARK   64  A    between atoms: _183  and  _184
REMARK   65  A    between atoms: _187  and  _189
REMARK   66  A    between atoms: _189  and  _190
REMARK   67  A    between atoms: _189  and  _192
REMARK   68  A    between atoms: _192  and  _193
REMARK   69  A    between atoms: _196  and  _198
REMARK   70  A    between atoms: _198  and  _199
REMARK   71  A    between atoms: _198  and  _201
REMARK   72  A    between atoms: _201  and  _202
REMARK   73  A    between atoms: _208  and  _210
REMARK   74  A    between atoms: _210  and  _211
REMARK   75  A    between atoms: _210  and  _213
REMARK   76  A    between atoms: _213  and  _214
REMARK   77  A    between atoms: _219  and  _220
REMARK   78  A    between atoms: _222  and  _224
REMARK   79  A    between atoms: _224  and  _225
REMARK   80  A    between atoms: _224  and  _227
REMARK   81  A    between atoms: _227  and  _228
REMARK   82  A    between atoms: _231  and  _233
REMARK   83  A    between atoms: _233  and  _234
REMARK   84  A    between atoms: _233  and  _236
REMARK   85  A    between atoms: _236  and  _237
REMARK   86  A    between atoms: _247  and  _249
REMARK   87  A    between atoms: _249  and  _250
REMARK   88  A    between atoms: _249  and  _252
REMARK   89  A    between atoms: _252  and  _253
REMARK   90  A    between atoms: _258  and  _260
REMARK   91  A    between atoms: _260  and  _261
REMARK   92  A    between atoms: _260  and  _263
REMARK   93  A    between atoms: _263  and  _264
REMARK   94  A    between atoms: _268  and  ZN_352
REMARK   95  A    between atoms: _269  and  _271
REMARK   96  A    between atoms: _271  and  _272
REMARK   97  A    between atoms: _271  and  _274
REMARK   98  A    between atoms: _274  and  _275
REMARK   99  A    between atoms: _278  and  _280
REMARK  100  A    between atoms: _280  and  _281
REMARK  101  A    between atoms: _283  and  _285
REMARK  102  A    between atoms: _285  and  _286
REMARK  103  A    between atoms: _285  and  _288
REMARK  104  A    between atoms: _288  and  _289
REMARK  105  A    between atoms: _292  and  _294
REMARK  106  A    between atoms: _294  and  _295
REMARK  107  A    between atoms: _294  and  _297
REMARK  108  A    between atoms: _297  and  _298
REMARK  109  A    between atoms: _301  and  _303
REMARK  110  A    between atoms: _303  and  _304
REMARK  111  A    between atoms: _307  and  _309
REMARK  112  A    between atoms: _309  and  _310
REMARK  113  A    between atoms: _309  and  _312
REMARK  114  A    between atoms: _312  and  _313
REMARK  115  A    between atoms: _318  and  _319
REMARK  116  A    between atoms: _321  and  _323
REMARK  117  A    between atoms: _323  and  _324
REMARK  118  A    between atoms: _323  and  _326
REMARK  119  A    between atoms: _326  and  _327
REMARK  120  A    between atoms: _327  and  _328
REMARK  121  A    between atoms: _328  and  _329
REMARK  122  A    between atoms: _338  and  _340
REMARK  123  A    between atoms: _340  and  _341
REMARK  124  A    between atoms: _343  and  _345
REMARK  125  A    between atoms: _345  and  _346
REMARK  126  A    between atoms: _345  and  _348
REMARK  127  A    between atoms: _348  and  _349
REMARK                            x       y       z     vdW  Elec       q    Type
REMARK                         _______ _______ _______ _____ _____    ______ ____
ROOT
ATOM      1  NE  ARG A   1      28.759  61.496   5.643  0.00  0.00    -0.265 N 
ATOM      2  CZ  ARG A   1      27.907  62.286   6.284  0.00  0.00    +0.342 C 
ATOM      3  NH2 ARG A   1      28.369  63.140   7.200  0.00  0.00    -0.292 N 
ATOM      4 HH21 ARG A   1      27.710  63.764   7.708  0.00  0.00    +0.255 HD
ATOM      5 HH22 ARG A   1      29.388  63.182   7.405  0.00  0.00    +0.255 HD
ATOM      6  NH1 ARG A   1      26.600  62.193   6.058  0.00  0.00    -0.292 N 
ATOM      7 HH11 ARG A   1      25.939  62.816   6.565  0.00  0.00    +0.255 HD
ATOM      8 HH12 ARG A   1      26.239  61.497   5.375  0.00  0.00    +0.255 HD
ATOM      9  HE  ARG A   1      29.755  61.521   5.943  0.00  0.00    +0.259 HD
ENDROOT
BRANCH   1  10
ATOM     10  CD  ARG A   1      28.411  60.602   4.559  0.00  0.00    +0.174 C 
BRANCH  10  11
ATOM     11  CG  ARG A   1      28.231  59.155   4.904  0.00  0.00    +0.045 C 
BRANCH  11  12
ATOM     12  CB  ARG A   1      28.086  58.359   3.638  0.00  0.00    +0.029 C 
BRANCH  12  13
ATOM     13  CA  ARG A   1      27.420  57.001   3.861  0.00  0.00    +0.133 C 
BRANCH  13  14
ATOM     14  N   ARG A   1      28.346  56.067   4.456  0.00  0.00    -0.239 NA
ATOM     15  H   ARG A   1      29.362  56.113   4.239  0.00  0.00    +0.142 HD
ENDBRANCH  13  14
BRANCH  13  16
ATOM     16  C   ARG A   1      26.850  56.440   2.586  0.00  0.00    +0.224 C 
ATOM     17  O   ARG A   1      27.363  56.668   1.494  0.00  0.00    -0.287 OA
ENDBRANCH  13  16
ENDBRANCH  12  13
ENDBRANCH  11  12
ENDBRANCH  10  11
ENDBRANCH   1  10
TORSDOF 6
REMARK  Name = ../refined-set-2016/3dx3/3dx3_pocket.pdb
REMARK  127 active torsions:
REMARK  status: ('A' for Active; 'I' for Inactive)
REMARK    1  A    between atoms: _1  and  _3
REMARK    2  A    between atoms: _14  and  _17
REMARK    3  A    between atoms: _17  and  _18
REMARK    4  A    between atoms: _25  and  _26
REMARK    5  A    between atoms: _33  and  _34
REMARK    6  A    between atoms: _39  and  _41
REMARK    7  A    between atoms: _41  and  _42
REMARK    8  A    between atoms: _44  and  _46
REMARK    9  A    between atoms: _46  and  _47
REMARK   10  A    between atoms: _46  and  _49
REMARK   11  A    between atoms: _49  and  _50
REMARK   12  A    between atoms: _60  and  _62
REMARK   13  A    between atoms: _62  and  _63
REMARK   14  A    between atoms: _62  and  _65
REMARK   15  A    between atoms: _65  and  _66
REMARK   16  A    between atoms: _69  and  _71
REMARK   17  A    between atoms: _71  and  _72
REMARK   18  A    between atoms: _71  and  _74
REMARK   19  A    between atoms: _74  and  _75
REMARK   20  A    between atoms: _80  and  _81
REMARK   21  A    between atoms: _83  and  _85
REMARK   22  A    between atoms: _85  and  _86
REMARK   23  A    between atoms: _85  and  _88
REMARK   24  A    between atoms: _88  and  _89
REMARK   25  A    between atoms: _89  and  _90
REMARK   26  A    between atoms: _93  and  _95
REMARK   27  A    between atoms: _95  and  _96
REMARK   28  A    between atoms: _95  and  _98
REMARK   29  A    between atoms: _98  and  _99
REMARK   30  A    between atoms: _99  and  _100
REMARK   31  A    between atoms: _102  and  _104
REMARK   32  A    between atoms: _104  and  _105
REMARK   33  A    between atoms: _104  and  _107
REMARK   34  A    between atoms: _107  and  _108
REMARK   35  A    between atoms: _111  and  _113
REMARK   36  A    between atoms: _113  and  _114
REMARK   37  A    between atoms: _113  and  _116
REMARK   38  A    between atoms: _116  and  _117
REMARK   39  A    between atoms: _117  and  _119
REMARK   40  A    between atoms: _119  and  ZN_352
REMARK   41  A    between atoms: _121  and  _122
REMARK   42  A    between atoms: _127  and  _129
REMARK   43  A    between atoms: _129  and  _130
REMARK   44  A    between atoms: _129  and  _132
REMARK   45  A    between atoms: _132  and  _133
REMARK   46  A    between atoms: _139  and  _141
REMARK   47  A    between atoms: _141  and  _142
REMARK   48  A    between atoms: _141  and  _144
REMARK   49  A    between atoms: _144  and  _145
REMARK   50  A    between atoms: _145  and  _146
REMARK   51  A    between atoms: _146  and  _147
REMARK   52  A    between atoms: _156  and  _158
REMARK   53  A    between atoms: _158  and  _159
REMARK   54  A    between atoms: _158  and  _161
REMARK   55  A    between atoms: _161  and  _162
REMARK   56  A    between atoms: _164  and  _166
REMARK   57  A    between atoms: _166  and  _167
REMARK   58  A    between atoms: _166  and  _169
REMARK   59  A    between atoms: _169  and  _170
REMARK   60  A    between atoms: _175  and  _176
REMARK   61  A    between atoms: _178  and  _180
REMARK   62  A    between atoms: _180  and  _181
REMARK   63  A    between atoms: _180  and  _183
REMARK   64  A    between atoms: _183  and  _184
REMARK   65  A    between atoms: _187  and  _189
REMARK   66  A    between atoms: _189  and  _190
REMARK   67  A    between atoms: _189  and  _192
REMARK   68  A    between atoms: _192  and  _193
REMARK   69  A    between atoms: _196  and  _198
REMARK   70  A    between atoms: _198  and  _199
REMARK   71  A    between atoms: _198  and  _201
REMARK   72  A    between atoms: _201  and  _202
REMARK   73  A    between atoms: _208  and  _210
REMARK   74  A    between atoms: _210  and  _211
REMARK   75  A    between atoms: _210  and  _213
REMARK   76  A    between atoms: _213  and  _214
REMARK   77  A    between atoms: _219  and  _220
REMARK   78  A    between atoms: _222  and  _224
REMARK   79  A    between atoms: _224  and  _225
REMARK   80  A    between atoms: _224  and  _227
REMARK   81  A    between atoms: _227  and  _228
REMARK   82  A    between atoms: _231  and  _233
REMARK   83  A    between atoms: _233  and  _234
REMARK   84  A    between atoms: _233  and  _236
REMARK   85  A    between atoms: _236  and  _237
REMARK   86  A    between atoms: _247  and  _249
REMARK   87  A    between atoms: _249  and  _250
REMARK   88  A    between atoms: _249  and  _252
REMARK   89  A    between atoms: _252  and  _253
REMARK   90  A    between atoms: _258  and  _260
REMARK   91  A    between atoms: _260  and  _261
REMARK   92  A    between atoms: _260  and  _263
REMARK   93  A    between atoms: _263  and  _264
REMARK   94  A    between atoms: _268  and  ZN_352
REMARK   95  A    between atoms: _269  and  _271
REMARK   96  A    between atoms: _271  and  _272
REMARK   97  A    between atoms: _271  and  _274
REMARK   98  A    between atoms: _274  and  _275
REMARK   99  A    between atoms: _278  and  _280
REMARK  100  A    between atoms: _280  and  _281
REMARK  101  A    between atoms: _283  and  _285
REMARK  102  A    between atoms: _285  and  _286
REMARK  103  A    between atoms: _285  and  _288
REMARK  104  A    between atoms: _288  and  _289
REMARK  105  A    between atoms: _292  and  _294
REMARK  106  A    between atoms: _294  and  _295
REMARK  107  A    between atoms: _294  and  _297
REMARK  108  A    between atoms: _297  and  _298
REMARK  109  A    between atoms: _301  and  _303
REMARK  110  A    between atoms: _303  and  _304
REMARK  111  A    between atoms: _307  and  _309
REMARK  112  A    between atoms: _309  and  _310
REMARK  113  A    between atoms: _309  and  _312
REMARK  114  A    between atoms: _312  and  _313
REMARK  115  A    between atoms: _318  and  _319
REMARK  116  A    between atoms: _321  and  _323
REMARK  117  A    between atoms: _323  and  _324
REMARK  118  A    between atoms: _323  and  _326
REMARK  119  A    between atoms: _326  and  _327
REMARK  120  A    between atoms: _327  and  _328
REMARK  121  A    between atoms: _328  and  _329
REMARK  122  A    between atoms: _338  and  _340
REMARK  123  A    between atoms: _340  and  _341
REMARK  124  A    between atoms: _343  and  _345
REMARK  125  A    between atoms: _345  and  _346
REMARK  126  A    between atoms: _345  and  _348
REMARK  127  A    between atoms: _348  and  _349
REMARK                            x       y       z     vdW  Elec       q    Type
REMARK                         _______ _______ _______ _____ _____    ______ ____
ROOT
ATOM      1  CA  TYR A   2      28.485  57.249  12.761  0.00  0.00    +0.141 C 
ENDROOT
BRANCH   1   4
ATOM      2  C   SER A   1      26.246  57.577  11.885  0.00  0.00    +0.241 C 
ATOM      3  O   SER A   1      25.857  56.486  12.320  0.00  0.00    -0.274 OA
ATOM      4  N   TYR A   2      27.514  57.975  11.957  0.00  0.00    -0.298 N 
ATOM      5  H   TYR A   2      27.816  58.819  11.430  0.00  0.00    +0.150 HD
BRANCH   2   6
ATOM      6  CA  SER A   1      25.283  58.547  11.220  0.00  0.00    +0.174 C 
BRANCH   6   7
ATOM      7  N   SER A   1      24.016  57.860  10.921  0.00  0.00    -0.236 NA
ATOM      8  H   SER A   1      23.666  57.138  11.583  0.00  0.00    +0.142 HD
ENDBRANCH   6   7
BRANCH   6   9
ATOM      9  CB  SER A   1      25.030  59.762  12.136  0.00  0.00    +0.163 C 
BRANCH   9  10
ATOM     10  OG  SER A   1      26.250  60.324  12.560  0.00  0.00    -0.380 OA
ATOM     11  H   SER A   1      26.768  60.619  11.770  0.00  0.00    +0.211 HD
ENDBRANCH   9  10
ENDBRANCH   6   9
ENDBRANCH   2   6
ENDBRANCH   1   4
BRANCH   1  12
ATOM     12  C   TYR A   2      28.596  57.767  14.206  0.00  0.00    +0.227 C 
ATOM     13  O   TYR A   2      29.461  57.284  14.951  0.00  0.00    -0.286 OA
ENDBRANCH   1  12
BRANCH   1  14
ATOM     14  CB  TYR A   2      29.882  57.319  12.112  0.00  0.00    +0.054 C 
BRANCH  14  15
ATOM     15  CG  TYR A   2      30.361  58.727  11.865  0.00  0.00    -0.020 A 
ATOM     16  CD2 TYR A   2      30.847  59.534  12.904  0.00  0.00    -0.001 A 
ATOM     17  CE2 TYR A   2      31.291  60.852  12.658  0.00  0.00    +0.036 A 
ATOM     18  CZ  TYR A   2      31.231  61.340  11.369  0.00  0.00    +0.134 A 
ATOM     19  CE1 TYR A   2      30.752  60.556  10.320  0.00  0.00    +0.036 A 
ATOM     20  CD1 TYR A   2      30.326  59.261  10.569  0.00  0.00    -0.001 A 
BRANCH  18  21
ATOM     21  OH  TYR A   2      31.634  62.619  11.128  0.00  0.00    -0.506 OA
ATOM     22  HH  TYR A   2      31.943  63.031  11.973  0.00  0.00    +0.292 HD
ENDBRANCH  18  21
ENDBRANCH  14  15
ENDBRANCH   1  14
TORSDOF 9
REMARK  Name = ../refined-set-2016/3dx3/3dx3_pocket.pdb
REMARK  127 active torsions:
REMARK  status: ('A' for Active; 'I' for Inactive)
REMARK    1  A    between atoms: _1  and  _3
REMARK    2  A    between atoms: _14  and  _17
REMARK    3  A    between atoms: _17  and  _18
REMARK    4  A    between atoms: _25  and  _26
REMARK    5  A    between atoms: _33  and  _34
REMARK    6  A    between atoms: _39  and  _41
REMARK    7  A    between atoms: _41  and  _42
REMARK    8  A    between atoms: _44  and  _46
REMARK    9  A    between atoms: _46  and  _47
REMARK   10  A    between atoms: _46  and  _49
REMARK   11  A    between atoms: _49  and  _50
REMARK   12  A    between atoms: _60  and  _62
REMARK   13  A    between atoms: _62  and  _63
REMARK   14  A    between atoms: _62  and  _65
REMARK   15  A    between atoms: _65  and  _66
REMARK   16  A    between atoms: _69  and  _71
REMARK   17  A    between atoms: _71  and  _72
REMARK   18  A    between atoms: _71  and  _74
REMARK   19  A    between atoms: _74  and  _75
REMARK   20  A    between atoms: _80  and  _81
REMARK   21  A    between atoms: _83  and  _85
REMARK   22  A    between atoms: _85  and  _86
REMARK   23  A    between atoms: _85  and  _88
REMARK   24  A    between atoms: _88  and  _89
REMARK   25  A    between atoms: _89  and  _90
REMARK   26  A    between atoms: _93  and  _95
REMARK   27  A    between atoms: _95  and  _96
REMARK   28  A    between atoms: _95  and  _98
REMARK   29  A    between atoms: _98  and  _99
REMARK   30  A    between atoms: _99  and  _100
REMARK   31  A    between atoms: _102  and  _104
REMARK   32  A    between atoms: _104  and  _105
REMARK   33  A    between atoms: _104  and  _107
REMARK   34  A    between atoms: _107  and  _108
REMARK   35  A    between atoms: _111  and  _113
REMARK   36  A    between atoms: _113  and  _114
REMARK   37  A    between atoms: _113  and  _116
REMARK   38  A    between atoms: _116  and  _117
REMARK   39  A    between atoms: _117  and  _119
REMARK   40  A    between atoms: _119  and  ZN_352
REMARK   41  A    between atoms: _121  and  _122
REMARK   42  A    between atoms: _127  and  _129
REMARK   43  A    between atoms: _129  and  _130
REMARK   44  A    between atoms: _129  and  _132
REMARK   45  A    between atoms: _132  and  _133
REMARK   46  A    between atoms: _139  and  _141
REMARK   47  A    between atoms: _141  and  _142
REMARK   48  A    between atoms: _141  and  _144
REMARK   49  A    between atoms: _144  and  _145
REMARK   50  A    between atoms: _145  and  _146
REMARK   51  A    between atoms: _146  and  _147
REMARK   52  A    between atoms: _156  and  _158
REMARK   53  A    between atoms: _158  and  _159
REMARK   54  A    between atoms: _158  and  _161
REMARK   55  A    between atoms: _161  and  _162
REMARK   56  A    between atoms: _164  and  _166
REMARK   57  A    between atoms: _166  and  _167
REMARK   58  A    between atoms: _166  and  _169
REMARK   59  A    between atoms: _169  and  _170
REMARK   60  A    between atoms: _175  and  _176
REMARK   61  A    between atoms: _178  and  _180
REMARK   62  A    between atoms: _180  and  _181
REMARK   63  A    between atoms: _180  and  _183
REMARK   64  A    between atoms: _183  and  _184
REMARK   65  A    between atoms: _187  and  _189
REMARK   66  A    between atoms: _189  and  _190
REMARK   67  A    between atoms: _189  and  _192
REMARK   68  A    between atoms: _192  and  _193
REMARK   69  A    between atoms: _196  and  _198
REMARK   70  A    between atoms: _198  and  _199
REMARK   71  A    between atoms: _198  and  _201
REMARK   72  A    between atoms: _201  and  _202
REMARK   73  A    between atoms: _208  and  _210
REMARK   74  A    between atoms: _210  and  _211
REMARK   75  A    between atoms: _210  and  _213
REMARK   76  A    between atoms: _213  and  _214
REMARK   77  A    between atoms: _219  and  _220
REMARK   78  A    between atoms: _222  and  _224
REMARK   79  A    between atoms: _224  and  _225
REMARK   80  A    between atoms: _224  and  _227
REMARK   81  A    between atoms: _227  and  _228
REMARK   82  A    between atoms: _231  and  _233
REMARK   83  A    between atoms: _233  and  _234
REMARK   84  A    between atoms: _233  and  _236
REMARK   85  A    between atoms: _236  and  _237
REMARK   86  A    between atoms: _247  and  _249
REMARK   87  A    between atoms: _249  and  _250
REMARK   88  A    between atoms: _249  and  _252
REMARK   89  A    between atoms: _252  and  _253
REMARK   90  A    between atoms: _258  and  _260
REMARK   91  A    between atoms: _260  and  _261
REMARK   92  A    between atoms: _260  and  _263
REMARK   93  A    between atoms: _263  and  _264
REMARK   94  A    between atoms: _268  and  ZN_352
REMARK   95  A    between atoms: _269  and  _271
REMARK   96  A    between atoms: _271  and  _272
REMARK   97  A    between atoms: _271  and  _274
REMARK   98  A    between atoms: _274  and  _275
REMARK   99  A    between atoms: _278  and  _280
REMARK  100  A    between atoms: _280  and  _281
REMARK  101  A    between atoms: _283  and  _285
REMARK  102  A    between atoms: _285  and  _286
REMARK  103  A    between atoms: _285  and  _288
REMARK  104  A    between atoms: _288  and  _289
REMARK  105  A    between atoms: _292  and  _294
REMARK  106  A    between atoms: _294  and  _295
REMARK  107  A    between atoms: _294  and  _297
REMARK  108  A    between atoms: _297  and  _298
REMARK  109  A    between atoms: _301  and  _303
REMARK  110  A    between atoms: _303  and  _304
REMARK  111  A    between atoms: _307  and  _309
REMARK  112  A    between atoms: _309  and  _310
REMARK  113  A    between atoms: _309  and  _312
REMARK  114  A    between atoms: _312  and  _313
REMARK  115  A    between atoms: _318  and  _319
REMARK  116  A    between atoms: _321  and  _323
REMARK  117  A    between atoms: _323  and  _324
REMARK  118  A    between atoms: _323  and  _326
REMARK  119  A    between atoms: _326  and  _327
REMARK  120  A    between atoms: _327  and  _328
REMARK  121  A    between atoms: _328  and  _329
REMARK  122  A    between atoms: _338  and  _340
REMARK  123  A    between atoms: _340  and  _341
REMARK  124  A    between atoms: _343  and  _345
REMARK  125  A    between atoms: _345  and  _346
REMARK  126  A    between atoms: _345  and  _348
REMARK  127  A    between atoms: _348  and  _349
REMARK                            x       y       z     vdW  Elec       q    Type
REMARK                         _______ _______ _______ _____ _____    ______ ____
ROOT
ATOM      1  CA  ASP A   2      33.963  64.378  15.362  0.00  0.00    +0.160 C 
ENDROOT
BRANCH   1   4
ATOM      2  C   ASP A   1      33.320  62.289  16.436  0.00  0.00    +0.239 C 
ATOM      3  O   ASP A   1      34.512  61.966  16.653  0.00  0.00    -0.274 OA
ATOM      4  N   ASP A   2      32.957  63.441  15.903  0.00  0.00    -0.297 N 
ATOM      5  H   ASP A   2      31.949  63.692  15.863  0.00  0.00    +0.150 HD
BRANCH   2   6
ATOM      6  CA  ASP A   1      32.175  61.336  16.815  0.00  0.00    +0.156 C 
BRANCH   6   7
ATOM      7  N   ASP A   1      32.801  60.263  17.550  0.00  0.00    -0.238 NA
ATOM      8  H   ASP A   1      33.804  60.360  17.809  0.00  0.00    +0.142 HD
ENDBRANCH   6   7
BRANCH   6   9
ATOM      9  CB  ASP A   1      31.110  62.011  17.710  0.00  0.00    +0.140 C 
BRANCH   9  10
ATOM     10  CG  ASP A   1      30.033  62.746  16.954  0.00  0.00    +0.367 C 
ATOM     11  OD2 ASP A   1      28.970  63.021  17.599  0.00  0.00    -0.246 OA
ATOM     12  OD1 ASP A   1      30.232  63.096  15.751  0.00  0.00    -0.246 OA
ENDBRANCH   9  10
ENDBRANCH   6   9
ENDBRANCH   2   6
ENDBRANCH   1   4
BRANCH   1  13
ATOM     13  C   ASP A   2      34.807  64.941  16.486  0.00  0.00    +0.241 C 
ATOM     14  O   ASP A   2      34.269  65.467  17.467  0.00  0.00    -0.273 OA
ATOM     15  N   PHE A   3      36.125  64.855  16.321  0.00  0.00    -0.298 N 
ATOM     16  H   PHE A   3      36.494  64.354  15.488  0.00  0.00    +0.150 HD
BRANCH  15  17
ATOM     17  CA  PHE A   3      37.080  65.444  17.276  0.00  0.00    +0.141 C 
BRANCH  17  18
ATOM     18  C   PHE A   3      36.759  65.058  18.716  0.00  0.00    +0.227 C 
ATOM     19  O   PHE A   3      36.980  65.825  19.662  0.00  0.00    -0.286 OA
ENDBRANCH  17  18
BRANCH  17  20
ATOM     20  CB  PHE A   3      37.184  66.954  17.056  0.00  0.00    +0.054 C 
BRANCH  20  21
ATOM     21  CG  PHE A   3      37.761  67.322  15.712  0.00  0.00    -0.020 A 
ATOM     22  CD2 PHE A   3      39.126  67.312  15.511  0.00  0.00    -0.004 A 
ATOM     23  CE2 PHE A   3      39.678  67.660  14.292  0.00  0.00    -0.000 A 
ATOM     24  CZ  PHE A   3      38.862  68.013  13.251  0.00  0.00    -0.000 A 
ATOM     25  CE1 PHE A   3      37.491  68.025  13.416  0.00  0.00    -0.000 A 
ATOM     26  CD1 PHE A   3      36.939  67.661  14.647  0.00  0.00    -0.004 A 
ENDBRANCH  20  21
ENDBRANCH  17  20
ENDBRANCH  15  17
ENDBRANCH   1  13
BRANCH   1  27
ATOM     27  CB  ASP A   2      33.270  65.500  14.623  0.00  0.00    +0.143 C 
BRANCH  27  28
ATOM     28  CG  ASP A   2      32.633  65.039  13.351  0.00  0.00    +0.367 C 
ATOM     29  OD2 ASP A   2      32.658  63.821  13.066  0.00  0.00    -0.246 OA
ATOM     30  OD1 ASP A   2      32.131  65.918  12.623  0.00  0.00    -0.246 OA
ENDBRANCH  27  28
ENDBRANCH   1  27
TORSDOF 12
REMARK  Name = ../refined-set-2016/3dx3/3dx3_pocket.pdb
REMARK  127 active torsions:
REMARK  status: ('A' for Active; 'I' for Inactive)
REMARK    1  A    between atoms: _1  and  _3
REMARK    2  A    between atoms: _14  and  _17
REMARK    3  A    between atoms: _17  and  _18
REMARK    4  A    between atoms: _25  and  _26
REMARK    5  A    between atoms: _33  and  _34
REMARK    6  A    between atoms: _39  and  _41
REMARK    7  A    between atoms: _41  and  _42
REMARK    8  A    between atoms: _44  and  _46
REMARK    9  A    between atoms: _46  and  _47
REMARK   10  A    between atoms: _46  and  _49
REMARK   11  A    between atoms: _49  and  _50
REMARK   12  A    between atoms: _60  and  _62
REMARK   13  A    between atoms: _62  and  _63
REMARK   14  A    between atoms: _62  and  _65
REMARK   15  A    between atoms: _65  and  _66
REMARK   16  A    between atoms: _69  and  _71
REMARK   17  A    between atoms: _71  and  _72
REMARK   18  A    between atoms: _71  and  _74
REMARK   19  A    between atoms: _74  and  _75
REMARK   20  A    between atoms: _80  and  _81
REMARK   21  A    between atoms: _83  and  _85
REMARK   22  A    between atoms: _85  and  _86
REMARK   23  A    between atoms: _85  and  _88
REMARK   24  A    between atoms: _88  and  _89
REMARK   25  A    between atoms: _89  and  _90
REMARK   26  A    between atoms: _93  and  _95
REMARK   27  A    between atoms: _95  and  _96
REMARK   28  A    between atoms: _95  and  _98
REMARK   29  A    between atoms: _98  and  _99
REMARK   30  A    between atoms: _99  and  _100
REMARK   31  A    between atoms: _102  and  _104
REMARK   32  A    between atoms: _104  and  _105
REMARK   33  A    between atoms: _104  and  _107
REMARK   34  A    between atoms: _107  and  _108
REMARK   35  A    between atoms: _111  and  _113
REMARK   36  A    between atoms: _113  and  _114
REMARK   37  A    between atoms: _113  and  _116
REMARK   38  A    between atoms: _116  and  _117
REMARK   39  A    between atoms: _117  and  _119
REMARK   40  A    between atoms: _119  and  ZN_352
REMARK   41  A    between atoms: _121  and  _122
REMARK   42  A    between atoms: _127  and  _129
REMARK   43  A    between atoms: _129  and  _130
REMARK   44  A    between atoms: _129  and  _132
REMARK   45  A    between atoms: _132  and  _133
REMARK   46  A    between atoms: _139  and  _141
REMARK   47  A    between atoms: _141  and  _142
REMARK   48  A    between atoms: _141  and  _144
REMARK   49  A    between atoms: _144  and  _145
REMARK   50  A    between atoms: _145  and  _146
REMARK   51  A    between atoms: _146  and  _147
REMARK   52  A    between atoms: _156  and  _158
REMARK   53  A    between atoms: _158  and  _159
REMARK   54  A    between atoms: _158  and  _161
REMARK   55  A    between atoms: _161  and  _162
REMARK   56  A    between atoms: _164  and  _166
REMARK   57  A    between atoms: _166  and  _167
REMARK   58  A    between atoms: _166  and  _169
REMARK   59  A    between atoms: _169  and  _170
REMARK   60  A    between atoms: _175  and  _176
REMARK   61  A    between atoms: _178  and  _180
REMARK   62  A    between atoms: _180  and  _181
REMARK   63  A    between atoms: _180  and  _183
REMARK   64  A    between atoms: _183  and  _184
REMARK   65  A    between atoms: _187  and  _189
REMARK   66  A    between atoms: _189  and  _190
REMARK   67  A    between atoms: _189  and  _192
REMARK   68  A    between atoms: _192  and  _193
REMARK   69  A    between atoms: _196  and  _198
REMARK   70  A    between atoms: _198  and  _199
REMARK   71  A    between atoms: _198  and  _201
REMARK   72  A    between atoms: _201  and  _202
REMARK   73  A    between atoms: _208  and  _210
REMARK   74  A    between atoms: _210  and  _211
REMARK   75  A    between atoms: _210  and  _213
REMARK   76  A    between atoms: _213  and  _214
REMARK   77  A    between atoms: _219  and  _220
REMARK   78  A    between atoms: _222  and  _224
REMARK   79  A    between atoms: _224  and  _225
REMARK   80  A    between atoms: _224  and  _227
REMARK   81  A    between atoms: _227  and  _228
REMARK   82  A    between atoms: _231  and  _233
REMARK   83  A    between atoms: _233  and  _234
REMARK   84  A    between atoms: _233  and  _236
REMARK   85  A    between atoms: _236  and  _237
REMARK   86  A    between atoms: _247  and  _249
REMARK   87  A    between atoms: _249  and  _250
REMARK   88  A    between atoms: _249  and  _252
REMARK   89  A    between atoms: _252  and  _253
REMARK   90  A    between atoms: _258  and  _260
REMARK   91  A    between atoms: _260  and  _261
REMARK   92  A    between atoms: _260  and  _263
REMARK   93  A    between atoms: _263  and  _264
REMARK   94  A    between atoms: _268  and  ZN_352
REMARK   95  A    between atoms: _269  and  _271
REMARK   96  A    between atoms: _271  and  _272
REMARK   97  A    between atoms: _271  and  _274
REMARK   98  A    between atoms: _274  and  _275
REMARK   99  A    between atoms: _278  and  _280
REMARK  100  A    between atoms: _280  and  _281
REMARK  101  A    between atoms: _283  and  _285
REMARK  102  A    between atoms: _285  and  _286
REMARK  103  A    between atoms: _285  and  _288
REMARK  104  A    between atoms: _288  and  _289
REMARK  105  A    between atoms: _292  and  _294
REMARK  106  A    between atoms: _294  and  _295
REMARK  107  A    between atoms: _294  and  _297
REMARK  108  A    between atoms: _297  and  _298
REMARK  109  A    between atoms: _301  and  _303
REMARK  110  A    between atoms: _303  and  _304
REMARK  111  A    between atoms: _307  and  _309
REMARK  112  A    between atoms: _309  and  _310
REMARK  113  A    between atoms: _309  and  _312
REMARK  114  A    between atoms: _312  and  _313
REMARK  115  A    between atoms: _318  and  _319
REMARK  116  A    between atoms: _321  and  _323
REMARK  117  A    between atoms: _323  and  _324
REMARK  118  A    between atoms: _323  and  _326
REMARK  119  A    between atoms: _326  and  _327
REMARK  120  A    between atoms: _327  and  _328
REMARK  121  A    between atoms: _328  and  _329
REMARK  122  A    between atoms: _338  and  _340
REMARK  123  A    between atoms: _340  and  _341
REMARK  124  A    between atoms: _343  and  _345
REMARK  125  A    between atoms: _345  and  _346
REMARK  126  A    between atoms: _345  and  _348
REMARK  127  A    between atoms: _348  and  _349
REMARK                            x       y       z     vdW  Elec       q    Type
REMARK                         _______ _______ _______ _____ _____    ______ ____
ROOT
ATOM      1  CG  TYR A   1      25.035  59.982   0.799  0.00  0.00    -0.020 A 
ATOM      2  CD2 TYR A   1      24.605  58.910   1.577  0.00  0.00    -0.001 A 
ATOM      3  CE2 TYR A   1      24.471  59.037   2.940  0.00  0.00    +0.036 A 
ATOM      4  CZ  TYR A   1      24.798  60.231   3.532  0.00  0.00    +0.134 A 
ATOM      5  CE1 TYR A   1      25.236  61.292   2.783  0.00  0.00    +0.036 A 
ATOM      6  CD1 TYR A   1      25.352  61.158   1.428  0.00  0.00    -0.001 A 
ENDROOT
BRANCH   4   7
ATOM      7  OH  TYR A   1      24.734  60.377   4.890  0.00  0.00    -0.506 OA
ATOM      8  HH  TYR A   1      24.403  59.537   5.296  0.00  0.00    +0.292 HD
ENDBRANCH   4   7
BRANCH   1   9
ATOM      9  CB  TYR A   1      25.243  59.849  -0.686  0.00  0.00    +0.051 C 
BRANCH   9  10
ATOM     10  CA  TYR A   1      24.037  59.514  -1.538  0.00  0.00    +0.137 C 
BRANCH  10  11
ATOM     11  N   TYR A   1      24.449  59.585  -2.919  0.00  0.00    -0.239 NA
ATOM     12  H   TYR A   1      25.409  59.919  -3.138  0.00  0.00    +0.142 HD
ENDBRANCH  10  11
BRANCH  10  13
ATOM     13  C   TYR A   1      22.910  60.480  -1.205  0.00  0.00    +0.224 C 
ATOM     14  O   TYR A   1      22.923  61.608  -1.643  0.00  0.00    -0.287 OA
ENDBRANCH  10  13
ENDBRANCH   9  10
ENDBRANCH   1   9
TORSDOF 5
REMARK  Name = ../refined-set-2016/3dx3/3dx3_pocket.pdb
REMARK  127 active torsions:
REMARK  status: ('A' for Active; 'I' for Inactive)
REMARK    1  A    between atoms: _1  and  _3
REMARK    2  A    between atoms: _14  and  _17
REMARK    3  A    between atoms: _17  and  _18
REMARK    4  A    between atoms: _25  and  _26
REMARK    5  A    between atoms: _33  and  _34
REMARK    6  A    between atoms: _39  and  _41
REMARK    7  A    between atoms: _41  and  _42
REMARK    8  A    between atoms: _44  and  _46
REMARK    9  A    between atoms: _46  and  _47
REMARK   10  A    between atoms: _46  and  _49
REMARK   11  A    between atoms: _49  and  _50
REMARK   12  A    between atoms: _60  and  _62
REMARK   13  A    between atoms: _62  and  _63
REMARK   14  A    between atoms: _62  and  _65
REMARK   15  A    between atoms: _65  and  _66
REMARK   16  A    between atoms: _69  and  _71
REMARK   17  A    between atoms: _71  and  _72
REMARK   18  A    between atoms: _71  and  _74
REMARK   19  A    between atoms: _74  and  _75
REMARK   20  A    between atoms: _80  and  _81
REMARK   21  A    between atoms: _83  and  _85
REMARK   22  A    between atoms: _85  and  _86
REMARK   23  A    between atoms: _85  and  _88
REMARK   24  A    between atoms: _88  and  _89
REMARK   25  A    between atoms: _89  and  _90
REMARK   26  A    between atoms: _93  and  _95
REMARK   27  A    between atoms: _95  and  _96
REMARK   28  A    between atoms: _95  and  _98
REMARK   29  A    between atoms: _98  and  _99
REMARK   30  A    between atoms: _99  and  _100
REMARK   31  A    between atoms: _102  and  _104
REMARK   32  A    between atoms: _104  and  _105
REMARK   33  A    between atoms: _104  and  _107
REMARK   34  A    between atoms: _107  and  _108
REMARK   35  A    between atoms: _111  and  _113
REMARK   36  A    between atoms: _113  and  _114
REMARK   37  A    between atoms: _113  and  _116
REMARK   38  A    between atoms: _116  and  _117
REMARK   39  A    between atoms: _117  and  _119
REMARK   40  A    between atoms: _119  and  ZN_352
REMARK   41  A    between atoms: _121  and  _122
REMARK   42  A    between atoms: _127  and  _129
REMARK   43  A    between atoms: _129  and  _130
REMARK   44  A    between atoms: _129  and  _132
REMARK   45  A    between atoms: _132  and  _133
REMARK   46  A    between atoms: _139  and  _141
REMARK   47  A    between atoms: _141  and  _142
REMARK   48  A    between atoms: _141  and  _144
REMARK   49  A    between atoms: _144  and  _145
REMARK   50  A    between atoms: _145  and  _146
REMARK   51  A    between atoms: _146  and  _147
REMARK   52  A    between atoms: _156  and  _158
REMARK   53  A    between atoms: _158  and  _159
REMARK   54  A    between atoms: _158  and  _161
REMARK   55  A    between atoms: _161  and  _162
REMARK   56  A    between atoms: _164  and  _166
REMARK   57  A    between atoms: _166  and  _167
REMARK   58  A    between atoms: _166  and  _169
REMARK   59  A    between atoms: _169  and  _170
REMARK   60  A    between atoms: _175  and  _176
REMARK   61  A    between atoms: _178  and  _180
REMARK   62  A    between atoms: _180  and  _181
REMARK   63  A    between atoms: _180  and  _183
REMARK   64  A    between atoms: _183  and  _184
REMARK   65  A    between atoms: _187  and  _189
REMARK   66  A    between atoms: _189  and  _190
REMARK   67  A    between atoms: _189  and  _192
REMARK   68  A    between atoms: _192  and  _193
REMARK   69  A    between atoms: _196  and  _198
REMARK   70  A    between atoms: _198  and  _199
REMARK   71  A    between atoms: _198  and  _201
REMARK   72  A    between atoms: _201  and  _202
REMARK   73  A    between atoms: _208  and  _210
REMARK   74  A    between atoms: _210  and  _211
REMARK   75  A    between atoms: _210  and  _213
REMARK   76  A    between atoms: _213  and  _214
REMARK   77  A    between atoms: _219  and  _220
REMARK   78  A    between atoms: _222  and  _224
REMARK   79  A    between atoms: _224  and  _225
REMARK   80  A    between atoms: _224  and  _227
REMARK   81  A    between atoms: _227  and  _228
REMARK   82  A    between atoms: _231  and  _233
REMARK   83  A    between atoms: _233  and  _234
REMARK   84  A    between atoms: _233  and  _236
REMARK   85  A    between atoms: _236  and  _237
REMARK   86  A    between atoms: _247  and  _249
REMARK   87  A    between atoms: _249  and  _250
REMARK   88  A    between atoms: _249  and  _252
REMARK   89  A    between atoms: _252  and  _253
REMARK   90  A    between atoms: _258  and  _260
REMARK   91  A    between atoms: _260  and  _261
REMARK   92  A    between atoms: _260  and  _263
REMARK   93  A    between atoms: _263  and  _264
REMARK   94  A    between atoms: _268  and  ZN_352
REMARK   95  A    between atoms: _269  and  _271
REMARK   96  A    between atoms: _271  and  _272
REMARK   97  A    between atoms: _271  and  _274
REMARK   98  A    between atoms: _274  and  _275
REMARK   99  A    between atoms: _278  and  _280
REMARK  100  A    between atoms: _280  and  _281
REMARK  101  A    between atoms: _283  and  _285
REMARK  102  A    between atoms: _285  and  _286
REMARK  103  A    between atoms: _285  and  _288
REMARK  104  A    between atoms: _288  and  _289
REMARK  105  A    between atoms: _292  and  _294
REMARK  106  A    between atoms: _294  and  _295
REMARK  107  A    between atoms: _294  and  _297
REMARK  108  A    between atoms: _297  and  _298
REMARK  109  A    between atoms: _301  and  _303
REMARK  110  A    between atoms: _303  and  _304
REMARK  111  A    between atoms: _307  and  _309
REMARK  112  A    between atoms: _309  and  _310
REMARK  113  A    between atoms: _309  and  _312
REMARK  114  A    between atoms: _312  and  _313
REMARK  115  A    between atoms: _318  and  _319
REMARK  116  A    between atoms: _321  and  _323
REMARK  117  A    between atoms: _323  and  _324
REMARK  118  A    between atoms: _323  and  _326
REMARK  119  A    between atoms: _326  and  _327
REMARK  120  A    between atoms: _327  and  _328
REMARK  121  A    between atoms: _328  and  _329
REMARK  122  A    between atoms: _338  and  _340
REMARK  123  A    between atoms: _340  and  _341
REMARK  124  A    between atoms: _343  and  _345
REMARK  125  A    between atoms: _345  and  _346
REMARK  126  A    between atoms: _345  and  _348
REMARK  127  A    between atoms: _348  and  _349
REMARK                            x       y       z     vdW  Elec       q    Type
REMARK                         _______ _______ _______ _____ _____    ______ ____
ROOT
ATOM      1  CA  ASP A   1      21.021  61.093   4.070  0.00  0.00    +0.144 C 
ENDROOT
BRANCH   1   2
ATOM      2  N   ASP A   1      21.084  61.418   2.645  0.00  0.00    -0.239 NA
ATOM      3  H   ASP A   1      21.203  62.408   2.351  0.00  0.00    +0.142 HD
ENDBRANCH   1   2
BRANCH   1   4
ATOM      4  C   ASP A   1      19.591  61.111   4.603  0.00  0.00    +0.225 C 
ATOM      5  O   ASP A   1      19.312  60.484   5.628  0.00  0.00    -0.287 OA
ENDBRANCH   1   4
BRANCH   1   6
ATOM      6  CB  ASP A   1      21.963  61.962   4.938  0.00  0.00    +0.139 C 
BRANCH   6   7
ATOM      7  CG  ASP A   1      21.704  63.479   4.831  0.00  0.00    +0.367 C 
ATOM      8  OD2 ASP A   1      22.235  64.212   5.721  0.00  0.00    -0.246 OA
ATOM      9  OD1 ASP A   1      21.019  63.960   3.886  0.00  0.00    -0.246 OA
ENDBRANCH   6   7
ENDBRANCH   1   6
TORSDOF 4
REMARK  Name = ../refined-set-2016/3dx3/3dx3_pocket.pdb
REMARK  127 active torsions:
REMARK  status: ('A' for Active; 'I' for Inactive)
REMARK    1  A    between atoms: _1  and  _3
REMARK    2  A    between atoms: _14  and  _17
REMARK    3  A    between atoms: _17  and  _18
REMARK    4  A    between atoms: _25  and  _26
REMARK    5  A    between atoms: _33  and  _34
REMARK    6  A    between atoms: _39  and  _41
REMARK    7  A    between atoms: _41  and  _42
REMARK    8  A    between atoms: _44  and  _46
REMARK    9  A    between atoms: _46  and  _47
REMARK   10  A    between atoms: _46  and  _49
REMARK   11  A    between atoms: _49  and  _50
REMARK   12  A    between atoms: _60  and  _62
REMARK   13  A    between atoms: _62  and  _63
REMARK   14  A    between atoms: _62  and  _65
REMARK   15  A    between atoms: _65  and  _66
REMARK   16  A    between atoms: _69  and  _71
REMARK   17  A    between atoms: _71  and  _72
REMARK   18  A    between atoms: _71  and  _74
REMARK   19  A    between atoms: _74  and  _75
REMARK   20  A    between atoms: _80  and  _81
REMARK   21  A    between atoms: _83  and  _85
REMARK   22  A    between atoms: _85  and  _86
REMARK   23  A    between atoms: _85  and  _88
REMARK   24  A    between atoms: _88  and  _89
REMARK   25  A    between atoms: _89  and  _90
REMARK   26  A    between atoms: _93  and  _95
REMARK   27  A    between atoms: _95  and  _96
REMARK   28  A    between atoms: _95  and  _98
REMARK   29  A    between atoms: _98  and  _99
REMARK   30  A    between atoms: _99  and  _100
REMARK   31  A    between atoms: _102  and  _104
REMARK   32  A    between atoms: _104  and  _105
REMARK   33  A    between atoms: _104  and  _107
REMARK   34  A    between atoms: _107  and  _108
REMARK   35  A    between atoms: _111  and  _113
REMARK   36  A    between atoms: _113  and  _114
REMARK   37  A    between atoms: _113  and  _116
REMARK   38  A    between atoms: _116  and  _117
REMARK   39  A    between atoms: _117  and  _119
REMARK   40  A    between atoms: _119  and  ZN_352
REMARK   41  A    between atoms: _121  and  _122
REMARK   42  A    between atoms: _127  and  _129
REMARK   43  A    between atoms: _129  and  _130
REMARK   44  A    between atoms: _129  and  _132
REMARK   45  A    between atoms: _132  and  _133
REMARK   46  A    between atoms: _139  and  _141
REMARK   47  A    between atoms: _141  and  _142
REMARK   48  A    between atoms: _141  and  _144
REMARK   49  A    between atoms: _144  and  _145
REMARK   50  A    between atoms: _145  and  _146
REMARK   51  A    between atoms: _146  and  _147
REMARK   52  A    between atoms: _156  and  _158
REMARK   53  A    between atoms: _158  and  _159
REMARK   54  A    between atoms: _158  and  _161
REMARK   55  A    between atoms: _161  and  _162
REMARK   56  A    between atoms: _164  and  _166
REMARK   57  A    between atoms: _166  and  _167
REMARK   58  A    between atoms: _166  and  _169
REMARK   59  A    between atoms: _169  and  _170
REMARK   60  A    between atoms: _175  and  _176
REMARK   61  A    between atoms: _178  and  _180
REMARK   62  A    between atoms: _180  and  _181
REMARK   63  A    between atoms: _180  and  _183
REMARK   64  A    between atoms: _183  and  _184
REMARK   65  A    between atoms: _187  and  _189
REMARK   66  A    between atoms: _189  and  _190
REMARK   67  A    between atoms: _189  and  _192
REMARK   68  A    between atoms: _192  and  _193
REMARK   69  A    between atoms: _196  and  _198
REMARK   70  A    between atoms: _198  and  _199
REMARK   71  A    between atoms: _198  and  _201
REMARK   72  A    between atoms: _201  and  _202
REMARK   73  A    between atoms: _208  and  _210
REMARK   74  A    between atoms: _210  and  _211
REMARK   75  A    between atoms: _210  and  _213
REMARK   76  A    between atoms: _213  and  _214
REMARK   77  A    between atoms: _219  and  _220
REMARK   78  A    between atoms: _222  and  _224
REMARK   79  A    between atoms: _224  and  _225
REMARK   80  A    between atoms: _224  and  _227
REMARK   81  A    between atoms: _227  and  _228
REMARK   82  A    between atoms: _231  and  _233
REMARK   83  A    between atoms: _233  and  _234
REMARK   84  A    between atoms: _233  and  _236
REMARK   85  A    between atoms: _236  and  _237
REMARK   86  A    between atoms: _247  and  _249
REMARK   87  A    between atoms: _249  and  _250
REMARK   88  A    between atoms: _249  and  _252
REMARK   89  A    between atoms: _252  and  _253
REMARK   90  A    between atoms: _258  and  _260
REMARK   91  A    between atoms: _260  and  _261
REMARK   92  A    between atoms: _260  and  _263
REMARK   93  A    between atoms: _263  and  _264
REMARK   94  A    between atoms: _268  and  ZN_352
REMARK   95  A    between atoms: _269  and  _271
REMARK   96  A    between atoms: _271  and  _272
REMARK   97  A    between atoms: _271  and  _274
REMARK   98  A    between atoms: _274  and  _275
REMARK   99  A    between atoms: _278  and  _280
REMARK  100  A    between atoms: _280  and  _281
REMARK  101  A    between atoms: _283  and  _285
REMARK  102  A    between atoms: _285  and  _286
REMARK  103  A    between atoms: _285  and  _288
REMARK  104  A    between atoms: _288  and  _289
REMARK  105  A    between atoms: _292  and  _294
REMARK  106  A    between atoms: _294  and  _295
REMARK  107  A    between atoms: _294  and  _297
REMARK  108  A    between atoms: _297  and  _298
REMARK  109  A    between atoms: _301  and  _303
REMARK  110  A    between atoms: _303  and  _304
REMARK  111  A    between atoms: _307  and  _309
REMARK  112  A    between atoms: _309  and  _310
REMARK  113  A    between atoms: _309  and  _312
REMARK  114  A    between atoms: _312  and  _313
REMARK  115  A    between atoms: _318  and  _319
REMARK  116  A    between atoms: _321  and  _323
REMARK  117  A    between atoms: _323  and  _324
REMARK  118  A    between atoms: _323  and  _326
REMARK  119  A    between atoms: _326  and  _327
REMARK  120  A    between atoms: _327  and  _328
REMARK  121  A    between atoms: _328  and  _329
REMARK  122  A    between atoms: _338  and  _340
REMARK  123  A    between atoms: _340  and  _341
REMARK  124  A    between atoms: _343  and  _345
REMARK  125  A    between atoms: _345  and  _346
REMARK  126  A    between atoms: _345  and  _348
REMARK  127  A    between atoms: _348  and  _349
REMARK                            x       y       z     vdW  Elec       q    Type
REMARK                         _______ _______ _______ _____ _____    ______ ____
ROOT
ATOM      1  CG  TRP A   1      24.794  64.540   0.384  0.00  0.00    -0.002 A 
ATOM      2  CD2 TRP A   1      25.558  64.784   1.558  0.00  0.00    +0.013 A 
ATOM      3  CE2 TRP A   1      24.672  64.741   2.668  0.00  0.00    +0.056 A 
ATOM      4  CZ2 TRP A   1      25.117  64.950   3.980  0.00  0.00    +0.017 A 
ATOM      5  CH2 TRP A   1      26.468  65.180   4.169  0.00  0.00    +0.001 A 
ATOM      6  CZ3 TRP A   1      27.370  65.219   3.078  0.00  0.00    +0.000 A 
ATOM      7  NE1 TRP A   1      23.405  64.486   2.181  0.00  0.00    -0.352 N 
ATOM      8  HE1 TRP A   1      22.540  64.410   2.754  0.00  0.00    +0.166 HD
ATOM      9  CE3 TRP A   1      26.935  65.025   1.789  0.00  0.00    +0.001 A 
ATOM     10  CD1 TRP A   1      23.475  64.348   0.807  0.00  0.00    +0.068 A 
ENDROOT
BRANCH   1  11
ATOM     11  CB  TRP A   1      25.333  64.446  -1.009  0.00  0.00    +0.053 C 
BRANCH  11  12
ATOM     12  CA  TRP A   1      24.457  65.112  -2.058  0.00  0.00    +0.137 C 
BRANCH  12  13
ATOM     13  N   TRP A   1      23.207  64.380  -2.198  0.00  0.00    -0.239 NA
ATOM     14  H   TRP A   1      23.198  63.350  -2.058  0.00  0.00    +0.142 HD
ENDBRANCH  12  13
BRANCH  12  15
ATOM     15  C   TRP A   1      25.168  65.138  -3.414  0.00  0.00    +0.224 C 
ATOM     16  O   TRP A   1      26.281  64.607  -3.549  0.00  0.00    -0.287 OA
ENDBRANCH  12  15
ENDBRANCH  11  12
ENDBRANCH   1  11
TORSDOF 4
REMARK  Name = ../refined-set-2016/3dx3/3dx3_pocket.pdb
REMARK  127 active torsions:
REMARK  status: ('A' for Active; 'I' for Inactive)
REMARK    1  A    between atoms: _1  and  _3
REMARK    2  A    between atoms: _14  and  _17
REMARK    3  A    between atoms: _17  and  _18
REMARK    4  A    between atoms: _25  and  _26
REMARK    5  A    between atoms: _33  and  _34
REMARK    6  A    between atoms: _39  and  _41
REMARK    7  A    between atoms: _41  and  _42
REMARK    8  A    between atoms: _44  and  _46
REMARK    9  A    between atoms: _46  and  _47
REMARK   10  A    between atoms: _46  and  _49
REMARK   11  A    between atoms: _49  and  _50
REMARK   12  A    between atoms: _60  and  _62
REMARK   13  A    between atoms: _62  and  _63
REMARK   14  A    between atoms: _62  and  _65
REMARK   15  A    between atoms: _65  and  _66
REMARK   16  A    between atoms: _69  and  _71
REMARK   17  A    between atoms: _71  and  _72
REMARK   18  A    between atoms: _71  and  _74
REMARK   19  A    between atoms: _74  and  _75
REMARK   20  A    between atoms: _80  and  _81
REMARK   21  A    between atoms: _83  and  _85
REMARK   22  A    between atoms: _85  and  _86
REMARK   23  A    between atoms: _85  and  _88
REMARK   24  A    between atoms: _88  and  _89
REMARK   25  A    between atoms: _89  and  _90
REMARK   26  A    between atoms: _93  and  _95
REMARK   27  A    between atoms: _95  and  _96
REMARK   28  A    between atoms: _95  and  _98
REMARK   29  A    between atoms: _98  and  _99
REMARK   30  A    between atoms: _99  and  _100
REMARK   31  A    between atoms: _102  and  _104
REMARK   32  A    between atoms: _104  and  _105
REMARK   33  A    between atoms: _104  and  _107
REMARK   34  A    between atoms: _107  and  _108
REMARK   35  A    between atoms: _111  and  _113
REMARK   36  A    between atoms: _113  and  _114
REMARK   37  A    between atoms: _113  and  _116
REMARK   38  A    between atoms: _116  and  _117
REMARK   39  A    between atoms: _117  and  _119
REMARK   40  A    between atoms: _119  and  ZN_352
REMARK   41  A    between atoms: _121  and  _122
REMARK   42  A    between atoms: _127  and  _129
REMARK   43  A    between atoms: _129  and  _130
REMARK   44  A    between atoms: _129  and  _132
REMARK   45  A    between atoms: _132  and  _133
REMARK   46  A    between atoms: _139  and  _141
REMARK   47  A    between atoms: _141  and  _142
REMARK   48  A    between atoms: _141  and  _144
REMARK   49  A    between atoms: _144  and  _145
REMARK   50  A    between atoms: _145  and  _146
REMARK   51  A    between atoms: _146  and  _147
REMARK   52  A    between atoms: _156  and  _158
REMARK   53  A    between atoms: _158  and  _159
REMARK   54  A    between atoms: _158  and  _161
REMARK   55  A    between atoms: _161  and  _162
REMARK   56  A    between atoms: _164  and  _166
REMARK   57  A    between atoms: _166  and  _167
REMARK   58  A    between atoms: _166  and  _169
REMARK   59  A    between atoms: _169  and  _170
REMARK   60  A    between atoms: _175  and  _176
REMARK   61  A    between atoms: _178  and  _180
REMARK   62  A    between atoms: _180  and  _181
REMARK   63  A    between atoms: _180  and  _183
REMARK   64  A    between atoms: _183  and  _184
REMARK   65  A    between atoms: _187  and  _189
REMARK   66  A    between atoms: _189  and  _190
REMARK   67  A    between atoms: _189  and  _192
REMARK   68  A    between atoms: _192  and  _193
REMARK   69  A    between atoms: _196  and  _198
REMARK   70  A    between atoms: _198  and  _199
REMARK   71  A    between atoms: _198  and  _201
REMARK   72  A    between atoms: _201  and  _202
REMARK   73  A    between atoms: _208  and  _210
REMARK   74  A    between atoms: _210  and  _211
REMARK   75  A    between atoms: _210  and  _213
REMARK   76  A    between atoms: _213  and  _214
REMARK   77  A    between atoms: _219  and  _220
REMARK   78  A    between atoms: _222  and  _224
REMARK   79  A    between atoms: _224  and  _225
REMARK   80  A    between atoms: _224  and  _227
REMARK   81  A    between atoms: _227  and  _228
REMARK   82  A    between atoms: _231  and  _233
REMARK   83  A    between atoms: _233  and  _234
REMARK   84  A    between atoms: _233  and  _236
REMARK   85  A    between atoms: _236  and  _237
REMARK   86  A    between atoms: _247  and  _249
REMARK   87  A    between atoms: _249  and  _250
REMARK   88  A    between atoms: _249  and  _252
REMARK   89  A    between atoms: _252  and  _253
REMARK   90  A    between atoms: _258  and  _260
REMARK   91  A    between atoms: _260  and  _261
REMARK   92  A    between atoms: _260  and  _263
REMARK   93  A    between atoms: _263  and  _264
REMARK   94  A    between atoms: _268  and  ZN_352
REMARK   95  A    between atoms: _269  and  _271
REMARK   96  A    between atoms: _271  and  _272
REMARK   97  A    between atoms: _271  and  _274
REMARK   98  A    between atoms: _274  and  _275
REMARK   99  A    between atoms: _278  and  _280
REMARK  100  A    between atoms: _280  and  _281
REMARK  101  A    between atoms: _283  and  _285
REMARK  102  A    between atoms: _285  and  _286
REMARK  103  A    between atoms: _285  and  _288
REMARK  104  A    between atoms: _288  and  _289
REMARK  105  A    between atoms: _292  and  _294
REMARK  106  A    between atoms: _294  and  _295
REMARK  107  A    between atoms: _294  and  _297
REMARK  108  A    between atoms: _297  and  _298
REMARK  109  A    between atoms: _301  and  _303
REMARK  110  A    between atoms: _303  and  _304
REMARK  111  A    between atoms: _307  and  _309
REMARK  112  A    between atoms: _309  and  _310
REMARK  113  A    between atoms: _309  and  _312
REMARK  114  A    between atoms: _312  and  _313
REMARK  115  A    between atoms: _318  and  _319
REMARK  116  A    between atoms: _321  and  _323
REMARK  117  A    between atoms: _323  and  _324
REMARK  118  A    between atoms: _323  and  _326
REMARK  119  A    between atoms: _326  and  _327
REMARK  120  A    between atoms: _327  and  _328
REMARK  121  A    between atoms: _328  and  _329
REMARK  122  A    between atoms: _338  and  _340
REMARK  123  A    between atoms: _340  and  _341
REMARK  124  A    between atoms: _343  and  _345
REMARK  125  A    between atoms: _345  and  _346
REMARK  126  A    between atoms: _345  and  _348
REMARK  127  A    between atoms: _348  and  _349
REMARK                            x       y       z     vdW  Elec       q    Type
REMARK                         _______ _______ _______ _____ _____    ______ ____
ROOT
ATOM      1  CA  THR A   1      34.691  68.157  -2.562  0.00  0.00    +0.160 C 
ENDROOT
BRANCH   1   2
ATOM      2  N   THR A   1      36.160  68.105  -2.526  0.00  0.00    -0.237 NA
ATOM      3  H   THR A   1      36.635  67.750  -1.672  0.00  0.00    +0.142 HD
ENDBRANCH   1   2
BRANCH   1   4
ATOM      4  CB  THR A   1      34.128  67.470  -1.320  0.00  0.00    +0.134 C 
ATOM      5  CG2 THR A   1      34.522  65.994  -1.233  0.00  0.00    +0.034 C 
BRANCH   4   6
ATOM      6  OG1 THR A   1      34.646  68.167  -0.186  0.00  0.00    -0.383 OA
ATOM      7  HG1 THR A   1      34.302  67.749   0.643  0.00  0.00    +0.210 HD
ENDBRANCH   4   6
ENDBRANCH   1   4
BRANCH   1   8
ATOM      8  C   THR A   1      34.134  69.580  -2.541  0.00  0.00    +0.227 C 
ATOM      9  O   THR A   1      32.965  69.792  -2.889  0.00  0.00    -0.287 OA
ENDBRANCH   1   8
TORSDOF 4
REMARK  Name = ../refined-set-2016/3dx3/3dx3_pocket.pdb
REMARK  127 active torsions:
REMARK  status: ('A' for Active; 'I' for Inactive)
REMARK    1  A    between atoms: _1  and  _3
REMARK    2  A    between atoms: _14  and  _17
REMARK    3  A    between atoms: _17  and  _18
REMARK    4  A    between atoms: _25  and  _26
REMARK    5  A    between atoms: _33  and  _34
REMARK    6  A    between atoms: _39  and  _41
REMARK    7  A    between atoms: _41  and  _42
REMARK    8  A    between atoms: _44  and  _46
REMARK    9  A    between atoms: _46  and  _47
REMARK   10  A    between atoms: _46  and  _49
REMARK   11  A    between atoms: _49  and  _50
REMARK   12  A    between atoms: _60  and  _62
REMARK   13  A    between atoms: _62  and  _63
REMARK   14  A    between atoms: _62  and  _65
REMARK   15  A    between atoms: _65  and  _66
REMARK   16  A    between atoms: _69  and  _71
REMARK   17  A    between atoms: _71  and  _72
REMARK   18  A    between atoms: _71  and  _74
REMARK   19  A    between atoms: _74  and  _75
REMARK   20  A    between atoms: _80  and  _81
REMARK   21  A    between atoms: _83  and  _85
REMARK   22  A    between atoms: _85  and  _86
REMARK   23  A    between atoms: _85  and  _88
REMARK   24  A    between atoms: _88  and  _89
REMARK   25  A    between atoms: _89  and  _90
REMARK   26  A    between atoms: _93  and  _95
REMARK   27  A    between atoms: _95  and  _96
REMARK   28  A    between atoms: _95  and  _98
REMARK   29  A    between atoms: _98  and  _99
REMARK   30  A    between atoms: _99  and  _100
REMARK   31  A    between atoms: _102  and  _104
REMARK   32  A    between atoms: _104  and  _105
REMARK   33  A    between atoms: _104  and  _107
REMARK   34  A    between atoms: _107  and  _108
REMARK   35  A    between atoms: _111  and  _113
REMARK   36  A    between atoms: _113  and  _114
REMARK   37  A    between atoms: _113  and  _116
REMARK   38  A    between atoms: _116  and  _117
REMARK   39  A    between atoms: _117  and  _119
REMARK   40  A    between atoms: _119  and  ZN_352
REMARK   41  A    between atoms: _121  and  _122
REMARK   42  A    between atoms: _127  and  _129
REMARK   43  A    between atoms: _129  and  _130
REMARK   44  A    between atoms: _129  and  _132
REMARK   45  A    between atoms: _132  and  _133
REMARK   46  A    between atoms: _139  and  _141
REMARK   47  A    between atoms: _141  and  _142
REMARK   48  A    between atoms: _141  and  _144
REMARK   49  A    between atoms: _144  and  _145
REMARK   50  A    between atoms: _145  and  _146
REMARK   51  A    between atoms: _146  and  _147
REMARK   52  A    between atoms: _156  and  _158
REMARK   53  A    between atoms: _158  and  _159
REMARK   54  A    between atoms: _158  and  _161
REMARK   55  A    between atoms: _161  and  _162
REMARK   56  A    between atoms: _164  and  _166
REMARK   57  A    between atoms: _166  and  _167
REMARK   58  A    between atoms: _166  and  _169
REMARK   59  A    between atoms: _169  and  _170
REMARK   60  A    between atoms: _175  and  _176
REMARK   61  A    between atoms: _178  and  _180
REMARK   62  A    between atoms: _180  and  _181
REMARK   63  A    between atoms: _180  and  _183
REMARK   64  A    between atoms: _183  and  _184
REMARK   65  A    between atoms: _187  and  _189
REMARK   66  A    between atoms: _189  and  _190
REMARK   67  A    between atoms: _189  and  _192
REMARK   68  A    between atoms: _192  and  _193
REMARK   69  A    between atoms: _196  and  _198
REMARK   70  A    between atoms: _198  and  _199
REMARK   71  A    between atoms: _198  and  _201
REMARK   72  A    between atoms: _201  and  _202
REMARK   73  A    between atoms: _208  and  _210
REMARK   74  A    between atoms: _210  and  _211
REMARK   75  A    between atoms: _210  and  _213
REMARK   76  A    between atoms: _213  and  _214
REMARK   77  A    between atoms: _219  and  _220
REMARK   78  A    between atoms: _222  and  _224
REMARK   79  A    between atoms: _224  and  _225
REMARK   80  A    between atoms: _224  and  _227
REMARK   81  A    between atoms: _227  and  _228
REMARK   82  A    between atoms: _231  and  _233
REMARK   83  A    between atoms: _233  and  _234
REMARK   84  A    between atoms: _233  and  _236
REMARK   85  A    between atoms: _236  and  _237
REMARK   86  A    between atoms: _247  and  _249
REMARK   87  A    between atoms: _249  and  _250
REMARK   88  A    between atoms: _249  and  _252
REMARK   89  A    between atoms: _252  and  _253
REMARK   90  A    between atoms: _258  and  _260
REMARK   91  A    between atoms: _260  and  _261
REMARK   92  A    between atoms: _260  and  _263
REMARK   93  A    between atoms: _263  and  _264
REMARK   94  A    between atoms: _268  and  ZN_352
REMARK   95  A    between atoms: _269  and  _271
REMARK   96  A    between atoms: _271  and  _272
REMARK   97  A    between atoms: _271  and  _274
REMARK   98  A    between atoms: _274  and  _275
REMARK   99  A    between atoms: _278  and  _280
REMARK  100  A    between atoms: _280  and  _281
REMARK  101  A    between atoms: _283  and  _285
REMARK  102  A    between atoms: _285  and  _286
REMARK  103  A    between atoms: _285  and  _288
REMARK  104  A    between atoms: _288  and  _289
REMARK  105  A    between atoms: _292  and  _294
REMARK  106  A    between atoms: _294  and  _295
REMARK  107  A    between atoms: _294  and  _297
REMARK  108  A    between atoms: _297  and  _298
REMARK  109  A    between atoms: _301  and  _303
REMARK  110  A    between atoms: _303  and  _304
REMARK  111  A    between atoms: _307  and  _309
REMARK  112  A    between atoms: _309  and  _310
REMARK  113  A    between atoms: _309  and  _312
REMARK  114  A    between atoms: _312  and  _313
REMARK  115  A    between atoms: _318  and  _319
REMARK  116  A    between atoms: _321  and  _323
REMARK  117  A    between atoms: _323  and  _324
REMARK  118  A    between atoms: _323  and  _326
REMARK  119  A    between atoms: _326  and  _327
REMARK  120  A    between atoms: _327  and  _328
REMARK  121  A    between atoms: _328  and  _329
REMARK  122  A    between atoms: _338  and  _340
REMARK  123  A    between atoms: _340  and  _341
REMARK  124  A    between atoms: _343  and  _345
REMARK  125  A    between atoms: _345  and  _346
REMARK  126  A    between atoms: _345  and  _348
REMARK  127  A    between atoms: _348  and  _349
REMARK                            x       y       z     vdW  Elec       q    Type
REMARK                         _______ _______ _______ _____ _____    ______ ____
ROOT
ATOM      1  C   THR A   1      33.339  72.189   2.482  0.00  0.00    +0.241 C 
ATOM      2  O   THR A   1      32.777  72.054   3.574  0.00  0.00    -0.274 OA
ATOM      3  N   ALA A   2      34.439  72.942   2.322  0.00  0.00    -0.298 N 
ATOM      4  H   ALA A   2      34.840  73.074   1.372  0.00  0.00    +0.150 HD
ENDROOT
BRANCH   3   5
ATOM      5  CA  ALA A   2      35.079  73.580   3.478  0.00  0.00    +0.137 C 
ATOM      6  CB  ALA A   2      36.592  73.332   3.429  0.00  0.00    +0.030 C 
BRANCH   5   7
ATOM      7  C   ALA A   2      34.779  75.083   3.526  0.00  0.00    +0.227 C 
ATOM      8  O   ALA A   2      34.298  75.677   2.555  0.00  0.00    -0.286 OA
ENDBRANCH   5   7
ENDBRANCH   3   5
BRANCH   1   9
ATOM      9  CA  THR A   1      32.697  71.569   1.243  0.00  0.00    +0.172 C 
BRANCH   9  10
ATOM     10  N   THR A   1      33.607  71.427   0.122  0.00  0.00    -0.236 NA
ATOM     11  H   THR A   1      34.389  70.744   0.181  0.00  0.00    +0.142 HD
ENDBRANCH   9  10
BRANCH   9  12
ATOM     12  CB  THR A   1      32.047  70.223   1.626  0.00  0.00    +0.135 C 
ATOM     13  CG2 THR A   1      31.147  69.738   0.494  0.00  0.00    +0.034 C 
BRANCH  12  14
ATOM     14  OG1 THR A   1      33.057  69.244   1.876  0.00  0.00    -0.383 OA
ATOM     15  HG1 THR A   1      33.605  69.121   1.060  0.00  0.00    +0.210 HD
ENDBRANCH  12  14
ENDBRANCH   9  12
ENDBRANCH   1   9
TORSDOF 6
REMARK  Name = ../refined-set-2016/3dx3/3dx3_pocket.pdb
REMARK  127 active torsions:
REMARK  status: ('A' for Active; 'I' for Inactive)
REMARK    1  A    between atoms: _1  and  _3
REMARK    2  A    between atoms: _14  and  _17
REMARK    3  A    between atoms: _17  and  _18
REMARK    4  A    between atoms: _25  and  _26
REMARK    5  A    between atoms: _33  and  _34
REMARK    6  A    between atoms: _39  and  _41
REMARK    7  A    between atoms: _41  and  _42
REMARK    8  A    between atoms: _44  and  _46
REMARK    9  A    between atoms: _46  and  _47
REMARK   10  A    between atoms: _46  and  _49
REMARK   11  A    between atoms: _49  and  _50
REMARK   12  A    between atoms: _60  and  _62
REMARK   13  A    between atoms: _62  and  _63
REMARK   14  A    between atoms: _62  and  _65
REMARK   15  A    between atoms: _65  and  _66
REMARK   16  A    between atoms: _69  and  _71
REMARK   17  A    between atoms: _71  and  _72
REMARK   18  A    between atoms: _71  and  _74
REMARK   19  A    between atoms: _74  and  _75
REMARK   20  A    between atoms: _80  and  _81
REMARK   21  A    between atoms: _83  and  _85
REMARK   22  A    between atoms: _85  and  _86
REMARK   23  A    between atoms: _85  and  _88
REMARK   24  A    between atoms: _88  and  _89
REMARK   25  A    between atoms: _89  and  _90
REMARK   26  A    between atoms: _93  and  _95
REMARK   27  A    between atoms: _95  and  _96
REMARK   28  A    between atoms: _95  and  _98
REMARK   29  A    between atoms: _98  and  _99
REMARK   30  A    between atoms: _99  and  _100
REMARK   31  A    between atoms: _102  and  _104
REMARK   32  A    between atoms: _104  and  _105
REMARK   33  A    between atoms: _104  and  _107
REMARK   34  A    between atoms: _107  and  _108
REMARK   35  A    between atoms: _111  and  _113
REMARK   36  A    between atoms: _113  and  _114
REMARK   37  A    between atoms: _113  and  _116
REMARK   38  A    between atoms: _116  and  _117
REMARK   39  A    between atoms: _117  and  _119
REMARK   40  A    between atoms: _119  and  ZN_352
REMARK   41  A    between atoms: _121  and  _122
REMARK   42  A    between atoms: _127  and  _129
REMARK   43  A    between atoms: _129  and  _130
REMARK   44  A    between atoms: _129  and  _132
REMARK   45  A    between atoms: _132  and  _133
REMARK   46  A    between atoms: _139  and  _141
REMARK   47  A    between atoms: _141  and  _142
REMARK   48  A    between atoms: _141  and  _144
REMARK   49  A    between atoms: _144  and  _145
REMARK   50  A    between atoms: _145  and  _146
REMARK   51  A    between atoms: _146  and  _147
REMARK   52  A    between atoms: _156  and  _158
REMARK   53  A    between atoms: _158  and  _159
REMARK   54  A    between atoms: _158  and  _161
REMARK   55  A    between atoms: _161  and  _162
REMARK   56  A    between atoms: _164  and  _166
REMARK   57  A    between atoms: _166  and  _167
REMARK   58  A    between atoms: _166  and  _169
REMARK   59  A    between atoms: _169  and  _170
REMARK   60  A    between atoms: _175  and  _176
REMARK   61  A    between atoms: _178  and  _180
REMARK   62  A    between atoms: _180  and  _181
REMARK   63  A    between atoms: _180  and  _183
REMARK   64  A    between atoms: _183  and  _184
REMARK   65  A    between atoms: _187  and  _189
REMARK   66  A    between atoms: _189  and  _190
REMARK   67  A    between atoms: _189  and  _192
REMARK   68  A    between atoms: _192  and  _193
REMARK   69  A    between atoms: _196  and  _198
REMARK   70  A    between atoms: _198  and  _199
REMARK   71  A    between atoms: _198  and  _201
REMARK   72  A    between atoms: _201  and  _202
REMARK   73  A    between atoms: _208  and  _210
REMARK   74  A    between atoms: _210  and  _211
REMARK   75  A    between atoms: _210  and  _213
REMARK   76  A    between atoms: _213  and  _214
REMARK   77  A    between atoms: _219  and  _220
REMARK   78  A    between atoms: _222  and  _224
REMARK   79  A    between atoms: _224  and  _225
REMARK   80  A    between atoms: _224  and  _227
REMARK   81  A    between atoms: _227  and  _228
REMARK   82  A    between atoms: _231  and  _233
REMARK   83  A    between atoms: _233  and  _234
REMARK   84  A    between atoms: _233  and  _236
REMARK   85  A    between atoms: _236  and  _237
REMARK   86  A    between atoms: _247  and  _249
REMARK   87  A    between atoms: _249  and  _250
REMARK   88  A    between atoms: _249  and  _252
REMARK   89  A    between atoms: _252  and  _253
REMARK   90  A    between atoms: _258  and  _260
REMARK   91  A    between atoms: _260  and  _261
REMARK   92  A    between atoms: _260  and  _263
REMARK   93  A    between atoms: _263  and  _264
REMARK   94  A    between atoms: _268  and  ZN_352
REMARK   95  A    between atoms: _269  and  _271
REMARK   96  A    between atoms: _271  and  _272
REMARK   97  A    between atoms: _271  and  _274
REMARK   98  A    between atoms: _274  and  _275
REMARK   99  A    between atoms: _278  and  _280
REMARK  100  A    between atoms: _280  and  _281
REMARK  101  A    between atoms: _283  and  _285
REMARK  102  A    between atoms: _285  and  _286
REMARK  103  A    between atoms: _285  and  _288
REMARK  104  A    between atoms: _288  and  _289
REMARK  105  A    between atoms: _292  and  _294
REMARK  106  A    between atoms: _294  and  _295
REMARK  107  A    between atoms: _294  and  _297
REMARK  108  A    between atoms: _297  and  _298
REMARK  109  A    between atoms: _301  and  _303
REMARK  110  A    between atoms: _303  and  _304
REMARK  111  A    between atoms: _307  and  _309
REMARK  112  A    between atoms: _309  and  _310
REMARK  113  A    between atoms: _309  and  _312
REMARK  114  A    between atoms: _312  and  _313
REMARK  115  A    between atoms: _318  and  _319
REMARK  116  A    between atoms: _321  and  _323
REMARK  117  A    between atoms: _323  and  _324
REMARK  118  A    between atoms: _323  and  _326
REMARK  119  A    between atoms: _326  and  _327
REMARK  120  A    between atoms: _327  and  _328
REMARK  121  A    between atoms: _328  and  _329
REMARK  122  A    between atoms: _338  and  _340
REMARK  123  A    between atoms: _340  and  _341
REMARK  124  A    between atoms: _343  and  _345
REMARK  125  A    between atoms: _345  and  _346
REMARK  126  A    between atoms: _345  and  _348
REMARK  127  A    between atoms: _348  and  _349
REMARK                            x       y       z     vdW  Elec       q    Type
REMARK                         _______ _______ _______ _____ _____    ______ ____
ROOT
ATOM      1  CG  TYR A   1      27.476  69.222   2.023  0.00  0.00    -0.020 A 
ATOM      2  CD2 TYR A   1      27.454  70.377   2.828  0.00  0.00    -0.001 A 
ATOM      3  CE2 TYR A   1      28.421  70.585   3.852  0.00  0.00    +0.036 A 
ATOM      4  CZ  TYR A   1      29.390  69.606   4.063  0.00  0.00    +0.134 A 
ATOM      5  CE1 TYR A   1      29.407  68.456   3.275  0.00  0.00    +0.036 A 
ATOM      6  CD1 TYR A   1      28.455  68.270   2.269  0.00  0.00    -0.001 A 
ENDROOT
BRANCH   4   7
ATOM      7  OH  TYR A   1      30.321  69.773   5.053  0.00  0.00    -0.506 OA
ATOM      8  HH  TYR A   1      30.242  69.034   5.707  0.00  0.00    +0.292 HD
ENDBRANCH   4   7
BRANCH   1   9
ATOM      9  CB  TYR A   1      26.422  68.982   0.985  0.00  0.00    +0.051 C 
BRANCH   9  10
ATOM     10  CA  TYR A   1      26.718  69.590  -0.378  0.00  0.00    +0.137 C 
BRANCH  10  11
ATOM     11  N   TYR A   1      26.912  71.042  -0.280  0.00  0.00    -0.239 NA
ATOM     12  H   TYR A   1      26.397  71.577   0.448  0.00  0.00    +0.142 HD
ENDBRANCH  10  11
BRANCH  10  13
ATOM     13  C   TYR A   1      25.553  69.230  -1.275  0.00  0.00    +0.224 C 
ATOM     14  O   TYR A   1      25.664  68.349  -2.137  0.00  0.00    -0.287 OA
ENDBRANCH  10  13
ENDBRANCH   9  10
ENDBRANCH   1   9
TORSDOF 5
REMARK  Name = ../refined-set-2016/3dx3/3dx3_pocket.pdb
REMARK  127 active torsions:
REMARK  status: ('A' for Active; 'I' for Inactive)
REMARK    1  A    between atoms: _1  and  _3
REMARK    2  A    between atoms: _14  and  _17
REMARK    3  A    between atoms: _17  and  _18
REMARK    4  A    between atoms: _25  and  _26
REMARK    5  A    between atoms: _33  and  _34
REMARK    6  A    between atoms: _39  and  _41
REMARK    7  A    between atoms: _41  and  _42
REMARK    8  A    between atoms: _44  and  _46
REMARK    9  A    between atoms: _46  and  _47
REMARK   10  A    between atoms: _46  and  _49
REMARK   11  A    between atoms: _49  and  _50
REMARK   12  A    between atoms: _60  and  _62
REMARK   13  A    between atoms: _62  and  _63
REMARK   14  A    between atoms: _62  and  _65
REMARK   15  A    between atoms: _65  and  _66
REMARK   16  A    between atoms: _69  and  _71
REMARK   17  A    between atoms: _71  and  _72
REMARK   18  A    between atoms: _71  and  _74
REMARK   19  A    between atoms: _74  and  _75
REMARK   20  A    between atoms: _80  and  _81
REMARK   21  A    between atoms: _83  and  _85
REMARK   22  A    between atoms: _85  and  _86
REMARK   23  A    between atoms: _85  and  _88
REMARK   24  A    between atoms: _88  and  _89
REMARK   25  A    between atoms: _89  and  _90
REMARK   26  A    between atoms: _93  and  _95
REMARK   27  A    between atoms: _95  and  _96
REMARK   28  A    between atoms: _95  and  _98
REMARK   29  A    between atoms: _98  and  _99
REMARK   30  A    between atoms: _99  and  _100
REMARK   31  A    between atoms: _102  and  _104
REMARK   32  A    between atoms: _104  and  _105
REMARK   33  A    between atoms: _104  and  _107
REMARK   34  A    between atoms: _107  and  _108
REMARK   35  A    between atoms: _111  and  _113
REMARK   36  A    between atoms: _113  and  _114
REMARK   37  A    between atoms: _113  and  _116
REMARK   38  A    between atoms: _116  and  _117
REMARK   39  A    between atoms: _117  and  _119
REMARK   40  A    between atoms: _119  and  ZN_352
REMARK   41  A    between atoms: _121  and  _122
REMARK   42  A    between atoms: _127  and  _129
REMARK   43  A    between atoms: _129  and  _130
REMARK   44  A    between atoms: _129  and  _132
REMARK   45  A    between atoms: _132  and  _133
REMARK   46  A    between atoms: _139  and  _141
REMARK   47  A    between atoms: _141  and  _142
REMARK   48  A    between atoms: _141  and  _144
REMARK   49  A    between atoms: _144  and  _145
REMARK   50  A    between atoms: _145  and  _146
REMARK   51  A    between atoms: _146  and  _147
REMARK   52  A    between atoms: _156  and  _158
REMARK   53  A    between atoms: _158  and  _159
REMARK   54  A    between atoms: _158  and  _161
REMARK   55  A    between atoms: _161  and  _162
REMARK   56  A    between atoms: _164  and  _166
REMARK   57  A    between atoms: _166  and  _167
REMARK   58  A    between atoms: _166  and  _169
REMARK   59  A    between atoms: _169  and  _170
REMARK   60  A    between atoms: _175  and  _176
REMARK   61  A    between atoms: _178  and  _180
REMARK   62  A    between atoms: _180  and  _181
REMARK   63  A    between atoms: _180  and  _183
REMARK   64  A    between atoms: _183  and  _184
REMARK   65  A    between atoms: _187  and  _189
REMARK   66  A    between atoms: _189  and  _190
REMARK   67  A    between atoms: _189  and  _192
REMARK   68  A    between atoms: _192  and  _193
REMARK   69  A    between atoms: _196  and  _198
REMARK   70  A    between atoms: _198  and  _199
REMARK   71  A    between atoms: _198  and  _201
REMARK   72  A    between atoms: _201  and  _202
REMARK   73  A    between atoms: _208  and  _210
REMARK   74  A    between atoms: _210  and  _211
REMARK   75  A    between atoms: _210  and  _213
REMARK   76  A    between atoms: _213  and  _214
REMARK   77  A    between atoms: _219  and  _220
REMARK   78  A    between atoms: _222  and  _224
REMARK   79  A    between atoms: _224  and  _225
REMARK   80  A    between atoms: _224  and  _227
REMARK   81  A    between atoms: _227  and  _228
REMARK   82  A    between atoms: _231  and  _233
REMARK   83  A    between atoms: _233  and  _234
REMARK   84  A    between atoms: _233  and  _236
REMARK   85  A    between atoms: _236  and  _237
REMARK   86  A    between atoms: _247  and  _249
REMARK   87  A    between atoms: _249  and  _250
REMARK   88  A    between atoms: _249  and  _252
REMARK   89  A    between atoms: _252  and  _253
REMARK   90  A    between atoms: _258  and  _260
REMARK   91  A    between atoms: _260  and  _261
REMARK   92  A    between atoms: _260  and  _263
REMARK   93  A    between atoms: _263  and  _264
REMARK   94  A    between atoms: _268  and  ZN_352
REMARK   95  A    between atoms: _269  and  _271
REMARK   96  A    between atoms: _271  and  _272
REMARK   97  A    between atoms: _271  and  _274
REMARK   98  A    between atoms: _274  and  _275
REMARK   99  A    between atoms: _278  and  _280
REMARK  100  A    between atoms: _280  and  _281
REMARK  101  A    between atoms: _283  and  _285
REMARK  102  A    between atoms: _285  and  _286
REMARK  103  A    between atoms: _285  and  _288
REMARK  104  A    between atoms: _288  and  _289
REMARK  105  A    between atoms: _292  and  _294
REMARK  106  A    between atoms: _294  and  _295
REMARK  107  A    between atoms: _294  and  _297
REMARK  108  A    between atoms: _297  and  _298
REMARK  109  A    between atoms: _301  and  _303
REMARK  110  A    between atoms: _303  and  _304
REMARK  111  A    between atoms: _307  and  _309
REMARK  112  A    between atoms: _309  and  _310
REMARK  113  A    between atoms: _309  and  _312
REMARK  114  A    between atoms: _312  and  _313
REMARK  115  A    between atoms: _318  and  _319
REMARK  116  A    between atoms: _321  and  _323
REMARK  117  A    between atoms: _323  and  _324
REMARK  118  A    between atoms: _323  and  _326
REMARK  119  A    between atoms: _326  and  _327
REMARK  120  A    between atoms: _327  and  _328
REMARK  121  A    between atoms: _328  and  _329
REMARK  122  A    between atoms: _338  and  _340
REMARK  123  A    between atoms: _340  and  _341
REMARK  124  A    between atoms: _343  and  _345
REMARK  125  A    between atoms: _345  and  _346
REMARK  126  A    between atoms: _345  and  _348
REMARK  127  A    between atoms: _348  and  _349
REMARK                            x       y       z     vdW  Elec       q    Type
REMARK                         _______ _______ _______ _____ _____    ______ ____
ROOT
ATOM      1  C   ARG A   1      26.395  70.503   8.023  0.00  0.00    +0.238 C 
ATOM      2  N   GLY A   2      26.349  71.714   8.579  0.00  0.00    -0.296 N 
ATOM      3  H   GLY A   2      25.571  72.360   8.337  0.00  0.00    +0.150 HD
ATOM      4  O   ARG A   1      27.355  69.746   8.184  0.00  0.00    -0.274 OA
ENDROOT
BRANCH   1   5
ATOM      5  CA  ARG A   1      25.175  70.063   7.193  0.00  0.00    +0.145 C 
BRANCH   5   6
ATOM      6  N   ARG A   1      24.266  71.172   6.894  0.00  0.00    -0.238 NA
ATOM      7  H   ARG A   1      24.584  71.943   6.273  0.00  0.00    +0.142 HD
ENDBRANCH   5   6
BRANCH   5   8
ATOM      8  CB  ARG A   1      25.608  69.325   5.913  0.00  0.00    +0.030 C 
BRANCH   8   9
ATOM      9  CG  ARG A   1      24.459  68.720   5.078  0.00  0.00    +0.045 C 
BRANCH   9  10
ATOM     10  CD  ARG A   1      23.632  67.799   5.937  0.00  0.00    +0.174 C 
BRANCH  10  11
ATOM     11  NE  ARG A   1      22.585  67.052   5.242  0.00  0.00    -0.265 N 
ATOM     12  HE  ARG A   1      22.787  66.068   4.973  0.00  0.00    +0.259 HD
ATOM     13  CZ  ARG A   1      21.392  67.548   4.932  0.00  0.00    +0.342 C 
ATOM     14  NH2 ARG A   1      21.150  68.843   5.148  0.00  0.00    -0.292 N 
ATOM     15 HH21 ARG A   1      21.891  69.450   5.554  0.00  0.00    +0.255 HD
ATOM     16 HH22 ARG A   1      20.221  69.245   4.910  0.00  0.00    +0.255 HD
ATOM     17  NH1 ARG A   1      20.462  66.763   4.394  0.00  0.00    -0.292 N 
ATOM     18 HH11 ARG A   1      20.668  65.759   4.215  0.00  0.00    +0.255 HD
ATOM     19 HH12 ARG A   1      19.529  67.153   4.152  0.00  0.00    +0.255 HD
ENDBRANCH  10  11
ENDBRANCH   9  10
ENDBRANCH   8   9
ENDBRANCH   5   8
ENDBRANCH   1   5
BRANCH   2  20
ATOM     20  CA  GLY A   2      27.376  72.145   9.523  0.00  0.00    +0.176 C 
BRANCH  20  21
ATOM     21  C   GLY A   2      28.437  73.065   8.964  0.00  0.00    +0.243 C 
ATOM     22  O   GLY A   2      29.302  73.524   9.716  0.00  0.00    -0.273 OA
ATOM     23  N   LEU A   3      28.396  73.317   7.659  0.00  0.00    -0.298 N 
ATOM     24  H   LEU A   3      27.638  72.911   7.073  0.00  0.00    +0.150 HD
BRANCH  23  25
ATOM     25  CA  LEU A   3      29.420  74.167   7.048  0.00  0.00    +0.137 C 
BRANCH  25  26
ATOM     26  C   LEU A   3      29.243  75.626   7.481  0.00  0.00    +0.227 C 
ATOM     27  O   LEU A   3      30.233  76.352   7.670  0.00  0.00    -0.286 OA
ENDBRANCH  25  26
BRANCH  25  28
ATOM     28  CB  LEU A   3      29.404  74.017   5.517  0.00  0.00    +0.028 C 
BRANCH  28  29
ATOM     29  CG  LEU A   3      30.257  75.020   4.719  0.00  0.00    +0.002 C 
ATOM     30  CD2 LEU A   3      31.728  74.933   5.128  0.00  0.00    +0.000 C 
ATOM     31  CD1 LEU A   3      30.137  74.789   3.216  0.00  0.00    +0.000 C 
ENDBRANCH  28  29
ENDBRANCH  25  28
ENDBRANCH  23  25
ENDBRANCH  20  21
ENDBRANCH   2  20
TORSDOF 12
REMARK  Name = ../refined-set-2016/3dx3/3dx3_pocket.pdb
REMARK  127 active torsions:
REMARK  status: ('A' for Active; 'I' for Inactive)
REMARK    1  A    between atoms: _1  and  _3
REMARK    2  A    between atoms: _14  and  _17
REMARK    3  A    between atoms: _17  and  _18
REMARK    4  A    between atoms: _25  and  _26
REMARK    5  A    between atoms: _33  and  _34
REMARK    6  A    between atoms: _39  and  _41
REMARK    7  A    between atoms: _41  and  _42
REMARK    8  A    between atoms: _44  and  _46
REMARK    9  A    between atoms: _46  and  _47
REMARK   10  A    between atoms: _46  and  _49
REMARK   11  A    between atoms: _49  and  _50
REMARK   12  A    between atoms: _60  and  _62
REMARK   13  A    between atoms: _62  and  _63
REMARK   14  A    between atoms: _62  and  _65
REMARK   15  A    between atoms: _65  and  _66
REMARK   16  A    between atoms: _69  and  _71
REMARK   17  A    between atoms: _71  and  _72
REMARK   18  A    between atoms: _71  and  _74
REMARK   19  A    between atoms: _74  and  _75
REMARK   20  A    between atoms: _80  and  _81
REMARK   21  A    between atoms: _83  and  _85
REMARK   22  A    between atoms: _85  and  _86
REMARK   23  A    between atoms: _85  and  _88
REMARK   24  A    between atoms: _88  and  _89
REMARK   25  A    between atoms: _89  and  _90
REMARK   26  A    between atoms: _93  and  _95
REMARK   27  A    between atoms: _95  and  _96
REMARK   28  A    between atoms: _95  and  _98
REMARK   29  A    between atoms: _98  and  _99
REMARK   30  A    between atoms: _99  and  _100
REMARK   31  A    between atoms: _102  and  _104
REMARK   32  A    between atoms: _104  and  _105
REMARK   33  A    between atoms: _104  and  _107
REMARK   34  A    between atoms: _107  and  _108
REMARK   35  A    between atoms: _111  and  _113
REMARK   36  A    between atoms: _113  and  _114
REMARK   37  A    between atoms: _113  and  _116
REMARK   38  A    between atoms: _116  and  _117
REMARK   39  A    between atoms: _117  and  _119
REMARK   40  A    between atoms: _119  and  ZN_352
REMARK   41  A    between atoms: _121  and  _122
REMARK   42  A    between atoms: _127  and  _129
REMARK   43  A    between atoms: _129  and  _130
REMARK   44  A    between atoms: _129  and  _132
REMARK   45  A    between atoms: _132  and  _133
REMARK   46  A    between atoms: _139  and  _141
REMARK   47  A    between atoms: _141  and  _142
REMARK   48  A    between atoms: _141  and  _144
REMARK   49  A    between atoms: _144  and  _145
REMARK   50  A    between atoms: _145  and  _146
REMARK   51  A    between atoms: _146  and  _147
REMARK   52  A    between atoms: _156  and  _158
REMARK   53  A    between atoms: _158  and  _159
REMARK   54  A    between atoms: _158  and  _161
REMARK   55  A    between atoms: _161  and  _162
REMARK   56  A    between atoms: _164  and  _166
REMARK   57  A    between atoms: _166  and  _167
REMARK   58  A    between atoms: _166  and  _169
REMARK   59  A    between atoms: _169  and  _170
REMARK   60  A    between atoms: _175  and  _176
REMARK   61  A    between atoms: _178  and  _180
REMARK   62  A    between atoms: _180  and  _181
REMARK   63  A    between atoms: _180  and  _183
REMARK   64  A    between atoms: _183  and  _184
REMARK   65  A    between atoms: _187  and  _189
REMARK   66  A    between atoms: _189  and  _190
REMARK   67  A    between atoms: _189  and  _192
REMARK   68  A    between atoms: _192  and  _193
REMARK   69  A    between atoms: _196  and  _198
REMARK   70  A    between atoms: _198  and  _199
REMARK   71  A    between atoms: _198  and  _201
REMARK   72  A    between atoms: _201  and  _202
REMARK   73  A    between atoms: _208  and  _210
REMARK   74  A    between atoms: _210  and  _211
REMARK   75  A    between atoms: _210  and  _213
REMARK   76  A    between atoms: _213  and  _214
REMARK   77  A    between atoms: _219  and  _220
REMARK   78  A    between atoms: _222  and  _224
REMARK   79  A    between atoms: _224  and  _225
REMARK   80  A    between atoms: _224  and  _227
REMARK   81  A    between atoms: _227  and  _228
REMARK   82  A    between atoms: _231  and  _233
REMARK   83  A    between atoms: _233  and  _234
REMARK   84  A    between atoms: _233  and  _236
REMARK   85  A    between atoms: _236  and  _237
REMARK   86  A    between atoms: _247  and  _249
REMARK   87  A    between atoms: _249  and  _250
REMARK   88  A    between atoms: _249  and  _252
REMARK   89  A    between atoms: _252  and  _253
REMARK   90  A    between atoms: _258  and  _260
REMARK   91  A    between atoms: _260  and  _261
REMARK   92  A    between atoms: _260  and  _263
REMARK   93  A    between atoms: _263  and  _264
REMARK   94  A    between atoms: _268  and  ZN_352
REMARK   95  A    between atoms: _269  and  _271
REMARK   96  A    between atoms: _271  and  _272
REMARK   97  A    between atoms: _271  and  _274
REMARK   98  A    between atoms: _274  and  _275
REMARK   99  A    between atoms: _278  and  _280
REMARK  100  A    between atoms: _280  and  _281
REMARK  101  A    between atoms: _283  and  _285
REMARK  102  A    between atoms: _285  and  _286
REMARK  103  A    between atoms: _285  and  _288
REMARK  104  A    between atoms: _288  and  _289
REMARK  105  A    between atoms: _292  and  _294
REMARK  106  A    between atoms: _294  and  _295
REMARK  107  A    between atoms: _294  and  _297
REMARK  108  A    between atoms: _297  and  _298
REMARK  109  A    between atoms: _301  and  _303
REMARK  110  A    between atoms: _303  and  _304
REMARK  111  A    between atoms: _307  and  _309
REMARK  112  A    between atoms: _309  and  _310
REMARK  113  A    between atoms: _309  and  _312
REMARK  114  A    between atoms: _312  and  _313
REMARK  115  A    between atoms: _318  and  _319
REMARK  116  A    between atoms: _321  and  _323
REMARK  117  A    between atoms: _323  and  _324
REMARK  118  A    between atoms: _323  and  _326
REMARK  119  A    between atoms: _326  and  _327
REMARK  120  A    between atoms: _327  and  _328
REMARK  121  A    between atoms: _328  and  _329
REMARK  122  A    between atoms: _338  and  _340
REMARK  123  A    between atoms: _340  and  _341
REMARK  124  A    between atoms: _343  and  _345
REMARK  125  A    between atoms: _345  and  _346
REMARK  126  A    between atoms: _345  and  _348
REMARK  127  A    between atoms: _348  and  _349
REMARK                            x       y       z     vdW  Elec       q    Type
REMARK                         _______ _______ _______ _____ _____    ______ ____
ROOT
ATOM      1  O   HOH     1      29.748  72.368  12.240  0.00  0.00    +0.000 OA
ENDROOT
TORSDOF 0
REMARK  Name = ../refined-set-2016/3dx3/3dx3_pocket.pdb
REMARK  127 active torsions:
REMARK  status: ('A' for Active; 'I' for Inactive)
REMARK    1  A    between atoms: _1  and  _3
REMARK    2  A    between atoms: _14  and  _17
REMARK    3  A    between atoms: _17  and  _18
REMARK    4  A    between atoms: _25  and  _26
REMARK    5  A    between atoms: _33  and  _34
REMARK    6  A    between atoms: _39  and  _41
REMARK    7  A    between atoms: _41  and  _42
REMARK    8  A    between atoms: _44  and  _46
REMARK    9  A    between atoms: _46  and  _47
REMARK   10  A    between atoms: _46  and  _49
REMARK   11  A    between atoms: _49  and  _50
REMARK   12  A    between atoms: _60  and  _62
REMARK   13  A    between atoms: _62  and  _63
REMARK   14  A    between atoms: _62  and  _65
REMARK   15  A    between atoms: _65  and  _66
REMARK   16  A    between atoms: _69  and  _71
REMARK   17  A    between atoms: _71  and  _72
REMARK   18  A    between atoms: _71  and  _74
REMARK   19  A    between atoms: _74  and  _75
REMARK   20  A    between atoms: _80  and  _81
REMARK   21  A    between atoms: _83  and  _85
REMARK   22  A    between atoms: _85  and  _86
REMARK   23  A    between atoms: _85  and  _88
REMARK   24  A    between atoms: _88  and  _89
REMARK   25  A    between atoms: _89  and  _90
REMARK   26  A    between atoms: _93  and  _95
REMARK   27  A    between atoms: _95  and  _96
REMARK   28  A    between atoms: _95  and  _98
REMARK   29  A    between atoms: _98  and  _99
REMARK   30  A    between atoms: _99  and  _100
REMARK   31  A    between atoms: _102  and  _104
REMARK   32  A    between atoms: _104  and  _105
REMARK   33  A    between atoms: _104  and  _107
REMARK   34  A    between atoms: _107  and  _108
REMARK   35  A    between atoms: _111  and  _113
REMARK   36  A    between atoms: _113  and  _114
REMARK   37  A    between atoms: _113  and  _116
REMARK   38  A    between atoms: _116  and  _117
REMARK   39  A    between atoms: _117  and  _119
REMARK   40  A    between atoms: _119  and  ZN_352
REMARK   41  A    between atoms: _121  and  _122
REMARK   42  A    between atoms: _127  and  _129
REMARK   43  A    between atoms: _129  and  _130
REMARK   44  A    between atoms: _129  and  _132
REMARK   45  A    between atoms: _132  and  _133
REMARK   46  A    between atoms: _139  and  _141
REMARK   47  A    between atoms: _141  and  _142
REMARK   48  A    between atoms: _141  and  _144
REMARK   49  A    between atoms: _144  and  _145
REMARK   50  A    between atoms: _145  and  _146
REMARK   51  A    between atoms: _146  and  _147
REMARK   52  A    between atoms: _156  and  _158
REMARK   53  A    between atoms: _158  and  _159
REMARK   54  A    between atoms: _158  and  _161
REMARK   55  A    between atoms: _161  and  _162
REMARK   56  A    between atoms: _164  and  _166
REMARK   57  A    between atoms: _166  and  _167
REMARK   58  A    between atoms: _166  and  _169
REMARK   59  A    between atoms: _169  and  _170
REMARK   60  A    between atoms: _175  and  _176
REMARK   61  A    between atoms: _178  and  _180
REMARK   62  A    between atoms: _180  and  _181
REMARK   63  A    between atoms: _180  and  _183
REMARK   64  A    between atoms: _183  and  _184
REMARK   65  A    between atoms: _187  and  _189
REMARK   66  A    between atoms: _189  and  _190
REMARK   67  A    between atoms: _189  and  _192
REMARK   68  A    between atoms: _192  and  _193
REMARK   69  A    between atoms: _196  and  _198
REMARK   70  A    between atoms: _198  and  _199
REMARK   71  A    between atoms: _198  and  _201
REMARK   72  A    between atoms: _201  and  _202
REMARK   73  A    between atoms: _208  and  _210
REMARK   74  A    between atoms: _210  and  _211
REMARK   75  A    between atoms: _210  and  _213
REMARK   76  A    between atoms: _213  and  _214
REMARK   77  A    between atoms: _219  and  _220
REMARK   78  A    between atoms: _222  and  _224
REMARK   79  A    between atoms: _224  and  _225
REMARK   80  A    between atoms: _224  and  _227
REMARK   81  A    between atoms: _227  and  _228
REMARK   82  A    between atoms: _231  and  _233
REMARK   83  A    between atoms: _233  and  _234
REMARK   84  A    between atoms: _233  and  _236
REMARK   85  A    between atoms: _236  and  _237
REMARK   86  A    between atoms: _247  and  _249
REMARK   87  A    between atoms: _249  and  _250
REMARK   88  A    between atoms: _249  and  _252
REMARK   89  A    between atoms: _252  and  _253
REMARK   90  A    between atoms: _258  and  _260
REMARK   91  A    between atoms: _260  and  _261
REMARK   92  A    between atoms: _260  and  _263
REMARK   93  A    between atoms: _263  and  _264
REMARK   94  A    between atoms: _268  and  ZN_352
REMARK   95  A    between atoms: _269  and  _271
REMARK   96  A    between atoms: _271  and  _272
REMARK   97  A    between atoms: _271  and  _274
REMARK   98  A    between atoms: _274  and  _275
REMARK   99  A    between atoms: _278  and  _280
REMARK  100  A    between atoms: _280  and  _281
REMARK  101  A    between atoms: _283  and  _285
REMARK  102  A    between atoms: _285  and  _286
REMARK  103  A    between atoms: _285  and  _288
REMARK  104  A    between atoms: _288  and  _289
REMARK  105  A    between atoms: _292  and  _294
REMARK  106  A    between atoms: _294  and  _295
REMARK  107  A    between atoms: _294  and  _297
REMARK  108  A    between atoms: _297  and  _298
REMARK  109  A    between atoms: _301  and  _303
REMARK  110  A    between atoms: _303  and  _304
REMARK  111  A    between atoms: _307  and  _309
REMARK  112  A    between atoms: _309  and  _310
REMARK  113  A    between atoms: _309  and  _312
REMARK  114  A    between atoms: _312  and  _313
REMARK  115  A    between atoms: _318  and  _319
REMARK  116  A    between atoms: _321  and  _323
REMARK  117  A    between atoms: _323  and  _324
REMARK  118  A    between atoms: _323  and  _326
REMARK  119  A    between atoms: _326  and  _327
REMARK  120  A    between atoms: _327  and  _328
REMARK  121  A    between atoms: _328  and  _329
REMARK  122  A    between atoms: _338  and  _340
REMARK  123  A    between atoms: _340  and  _341
REMARK  124  A    between atoms: _343  and  _345
REMARK  125  A    between atoms: _345  and  _346
REMARK  126  A    between atoms: _345  and  _348
REMARK  127  A    between atoms: _348  and  _349
REMARK                            x       y       z     vdW  Elec       q    Type
REMARK                         _______ _______ _______ _____ _____    ______ ____
ROOT
ATOM      1  O   HOH     1      31.898  71.398  13.579  0.00  0.00    +0.000 OA
ENDROOT
TORSDOF 0
REMARK  Name = ../refined-set-2016/3dx3/3dx3_pocket.pdb
REMARK  127 active torsions:
REMARK  status: ('A' for Active; 'I' for Inactive)
REMARK    1  A    between atoms: _1  and  _3
REMARK    2  A    between atoms: _14  and  _17
REMARK    3  A    between atoms: _17  and  _18
REMARK    4  A    between atoms: _25  and  _26
REMARK    5  A    between atoms: _33  and  _34
REMARK    6  A    between atoms: _39  and  _41
REMARK    7  A    between atoms: _41  and  _42
REMARK    8  A    between atoms: _44  and  _46
REMARK    9  A    between atoms: _46  and  _47
REMARK   10  A    between atoms: _46  and  _49
REMARK   11  A    between atoms: _49  and  _50
REMARK   12  A    between atoms: _60  and  _62
REMARK   13  A    between atoms: _62  and  _63
REMARK   14  A    between atoms: _62  and  _65
REMARK   15  A    between atoms: _65  and  _66
REMARK   16  A    between atoms: _69  and  _71
REMARK   17  A    between atoms: _71  and  _72
REMARK   18  A    between atoms: _71  and  _74
REMARK   19  A    between atoms: _74  and  _75
REMARK   20  A    between atoms: _80  and  _81
REMARK   21  A    between atoms: _83  and  _85
REMARK   22  A    between atoms: _85  and  _86
REMARK   23  A    between atoms: _85  and  _88
REMARK   24  A    between atoms: _88  and  _89
REMARK   25  A    between atoms: _89  and  _90
REMARK   26  A    between atoms: _93  and  _95
REMARK   27  A    between atoms: _95  and  _96
REMARK   28  A    between atoms: _95  and  _98
REMARK   29  A    between atoms: _98  and  _99
REMARK   30  A    between atoms: _99  and  _100
REMARK   31  A    between atoms: _102  and  _104
REMARK   32  A    between atoms: _104  and  _105
REMARK   33  A    between atoms: _104  and  _107
REMARK   34  A    between atoms: _107  and  _108
REMARK   35  A    between atoms: _111  and  _113
REMARK   36  A    between atoms: _113  and  _114
REMARK   37  A    between atoms: _113  and  _116
REMARK   38  A    between atoms: _116  and  _117
REMARK   39  A    between atoms: _117  and  _119
REMARK   40  A    between atoms: _119  and  ZN_352
REMARK   41  A    between atoms: _121  and  _122
REMARK   42  A    between atoms: _127  and  _129
REMARK   43  A    between atoms: _129  and  _130
REMARK   44  A    between atoms: _129  and  _132
REMARK   45  A    between atoms: _132  and  _133
REMARK   46  A    between atoms: _139  and  _141
REMARK   47  A    between atoms: _141  and  _142
REMARK   48  A    between atoms: _141  and  _144
REMARK   49  A    between atoms: _144  and  _145
REMARK   50  A    between atoms: _145  and  _146
REMARK   51  A    between atoms: _146  and  _147
REMARK   52  A    between atoms: _156  and  _158
REMARK   53  A    between atoms: _158  and  _159
REMARK   54  A    between atoms: _158  and  _161
REMARK   55  A    between atoms: _161  and  _162
REMARK   56  A    between atoms: _164  and  _166
REMARK   57  A    between atoms: _166  and  _167
REMARK   58  A    between atoms: _166  and  _169
REMARK   59  A    between atoms: _169  and  _170
REMARK   60  A    between atoms: _175  and  _176
REMARK   61  A    between atoms: _178  and  _180
REMARK   62  A    between atoms: _180  and  _181
REMARK   63  A    between atoms: _180  and  _183
REMARK   64  A    between atoms: _183  and  _184
REMARK   65  A    between atoms: _187  and  _189
REMARK   66  A    between atoms: _189  and  _190
REMARK   67  A    between atoms: _189  and  _192
REMARK   68  A    between atoms: _192  and  _193
REMARK   69  A    between atoms: _196  and  _198
REMARK   70  A    between atoms: _198  and  _199
REMARK   71  A    between atoms: _198  and  _201
REMARK   72  A    between atoms: _201  and  _202
REMARK   73  A    between atoms: _208  and  _210
REMARK   74  A    between atoms: _210  and  _211
REMARK   75  A    between atoms: _210  and  _213
REMARK   76  A    between atoms: _213  and  _214
REMARK   77  A    between atoms: _219  and  _220
REMARK   78  A    between atoms: _222  and  _224
REMARK   79  A    between atoms: _224  and  _225
REMARK   80  A    between atoms: _224  and  _227
REMARK   81  A    between atoms: _227  and  _228
REMARK   82  A    between atoms: _231  and  _233
REMARK   83  A    between atoms: _233  and  _234
REMARK   84  A    between atoms: _233  and  _236
REMARK   85  A    between atoms: _236  and  _237
REMARK   86  A    between atoms: _247  and  _249
REMARK   87  A    between atoms: _249  and  _250
REMARK   88  A    between atoms: _249  and  _252
REMARK   89  A    between atoms: _252  and  _253
REMARK   90  A    between atoms: _258  and  _260
REMARK   91  A    between atoms: _260  and  _261
REMARK   92  A    between atoms: _260  and  _263
REMARK   93  A    between atoms: _263  and  _264
REMARK   94  A    between atoms: _268  and  ZN_352
REMARK   95  A    between atoms: _269  and  _271
REMARK   96  A    between atoms: _271  and  _272
REMARK   97  A    between atoms: _271  and  _274
REMARK   98  A    between atoms: _274  and  _275
REMARK   99  A    between atoms: _278  and  _280
REMARK  100  A    between atoms: _280  and  _281
REMARK  101  A    between atoms: _283  and  _285
REMARK  102  A    between atoms: _285  and  _286
REMARK  103  A    between atoms: _285  and  _288
REMARK  104  A    between atoms: _288  and  _289
REMARK  105  A    between atoms: _292  and  _294
REMARK  106  A    between atoms: _294  and  _295
REMARK  107  A    between atoms: _294  and  _297
REMARK  108  A    between atoms: _297  and  _298
REMARK  109  A    between atoms: _301  and  _303
REMARK  110  A    between atoms: _303  and  _304
REMARK  111  A    between atoms: _307  and  _309
REMARK  112  A    between atoms: _309  and  _310
REMARK  113  A    between atoms: _309  and  _312
REMARK  114  A    between atoms: _312  and  _313
REMARK  115  A    between atoms: _318  and  _319
REMARK  116  A    between atoms: _321  and  _323
REMARK  117  A    between atoms: _323  and  _324
REMARK  118  A    between atoms: _323  and  _326
REMARK  119  A    between atoms: _326  and  _327
REMARK  120  A    between atoms: _327  and  _328
REMARK  121  A    between atoms: _328  and  _329
REMARK  122  A    between atoms: _338  and  _340
REMARK  123  A    between atoms: _340  and  _341
REMARK  124  A    between atoms: _343  and  _345
REMARK  125  A    between atoms: _345  and  _346
REMARK  126  A    between atoms: _345  and  _348
REMARK  127  A    between atoms: _348  and  _349
REMARK                            x       y       z     vdW  Elec       q    Type
REMARK                         _______ _______ _______ _____ _____    ______ ____
ROOT
ATOM      1  O   HOH     1      34.652  70.526  13.068  0.00  0.00    +0.000 OA
ENDROOT
TORSDOF 0
REMARK  Name = ../refined-set-2016/3dx3/3dx3_pocket.pdb
REMARK  127 active torsions:
REMARK  status: ('A' for Active; 'I' for Inactive)
REMARK    1  A    between atoms: _1  and  _3
REMARK    2  A    between atoms: _14  and  _17
REMARK    3  A    between atoms: _17  and  _18
REMARK    4  A    between atoms: _25  and  _26
REMARK    5  A    between atoms: _33  and  _34
REMARK    6  A    between atoms: _39  and  _41
REMARK    7  A    between atoms: _41  and  _42
REMARK    8  A    between atoms: _44  and  _46
REMARK    9  A    between atoms: _46  and  _47
REMARK   10  A    between atoms: _46  and  _49
REMARK   11  A    between atoms: _49  and  _50
REMARK   12  A    between atoms: _60  and  _62
REMARK   13  A    between atoms: _62  and  _63
REMARK   14  A    between atoms: _62  and  _65
REMARK   15  A    between atoms: _65  and  _66
REMARK   16  A    between atoms: _69  and  _71
REMARK   17  A    between atoms: _71  and  _72
REMARK   18  A    between atoms: _71  and  _74
REMARK   19  A    between atoms: _74  and  _75
REMARK   20  A    between atoms: _80  and  _81
REMARK   21  A    between atoms: _83  and  _85
REMARK   22  A    between atoms: _85  and  _86
REMARK   23  A    between atoms: _85  and  _88
REMARK   24  A    between atoms: _88  and  _89
REMARK   25  A    between atoms: _89  and  _90
REMARK   26  A    between atoms: _93  and  _95
REMARK   27  A    between atoms: _95  and  _96
REMARK   28  A    between atoms: _95  and  _98
REMARK   29  A    between atoms: _98  and  _99
REMARK   30  A    between atoms: _99  and  _100
REMARK   31  A    between atoms: _102  and  _104
REMARK   32  A    between atoms: _104  and  _105
REMARK   33  A    between atoms: _104  and  _107
REMARK   34  A    between atoms: _107  and  _108
REMARK   35  A    between atoms: _111  and  _113
REMARK   36  A    between atoms: _113  and  _114
REMARK   37  A    between atoms: _113  and  _116
REMARK   38  A    between atoms: _116  and  _117
REMARK   39  A    between atoms: _117  and  _119
REMARK   40  A    between atoms: _119  and  ZN_352
REMARK   41  A    between atoms: _121  and  _122
REMARK   42  A    between atoms: _127  and  _129
REMARK   43  A    between atoms: _129  and  _130
REMARK   44  A    between atoms: _129  and  _132
REMARK   45  A    between atoms: _132  and  _133
REMARK   46  A    between atoms: _139  and  _141
REMARK   47  A    between atoms: _141  and  _142
REMARK   48  A    between atoms: _141  and  _144
REMARK   49  A    between atoms: _144  and  _145
REMARK   50  A    between atoms: _145  and  _146
REMARK   51  A    between atoms: _146  and  _147
REMARK   52  A    between atoms: _156  and  _158
REMARK   53  A    between atoms: _158  and  _159
REMARK   54  A    between atoms: _158  and  _161
REMARK   55  A    between atoms: _161  and  _162
REMARK   56  A    between atoms: _164  and  _166
REMARK   57  A    between atoms: _166  and  _167
REMARK   58  A    between atoms: _166  and  _169
REMARK   59  A    between atoms: _169  and  _170
REMARK   60  A    between atoms: _175  and  _176
REMARK   61  A    between atoms: _178  and  _180
REMARK   62  A    between atoms: _180  and  _181
REMARK   63  A    between atoms: _180  and  _183
REMARK   64  A    between atoms: _183  and  _184
REMARK   65  A    between atoms: _187  and  _189
REMARK   66  A    between atoms: _189  and  _190
REMARK   67  A    between atoms: _189  and  _192
REMARK   68  A    between atoms: _192  and  _193
REMARK   69  A    between atoms: _196  and  _198
REMARK   70  A    between atoms: _198  and  _199
REMARK   71  A    between atoms: _198  and  _201
REMARK   72  A    between atoms: _201  and  _202
REMARK   73  A    between atoms: _208  and  _210
REMARK   74  A    between atoms: _210  and  _211
REMARK   75  A    between atoms: _210  and  _213
REMARK   76  A    between atoms: _213  and  _214
REMARK   77  A    between atoms: _219  and  _220
REMARK   78  A    between atoms: _222  and  _224
REMARK   79  A    between atoms: _224  and  _225
REMARK   80  A    between atoms: _224  and  _227
REMARK   81  A    between atoms: _227  and  _228
REMARK   82  A    between atoms: _231  and  _233
REMARK   83  A    between atoms: _233  and  _234
REMARK   84  A    between atoms: _233  and  _236
REMARK   85  A    between atoms: _236  and  _237
REMARK   86  A    between atoms: _247  and  _249
REMARK   87  A    between atoms: _249  and  _250
REMARK   88  A    between atoms: _249  and  _252
REMARK   89  A    between atoms: _252  and  _253
REMARK   90  A    between atoms: _258  and  _260
REMARK   91  A    between atoms: _260  and  _261
REMARK   92  A    between atoms: _260  and  _263
REMARK   93  A    between atoms: _263  and  _264
REMARK   94  A    between atoms: _268  and  ZN_352
REMARK   95  A    between atoms: _269  and  _271
REMARK   96  A    between atoms: _271  and  _272
REMARK   97  A    between atoms: _271  and  _274
REMARK   98  A    between atoms: _274  and  _275
REMARK   99  A    between atoms: _278  and  _280
REMARK  100  A    between atoms: _280  and  _281
REMARK  101  A    between atoms: _283  and  _285
REMARK  102  A    between atoms: _285  and  _286
REMARK  103  A    between atoms: _285  and  _288
REMARK  104  A    between atoms: _288  and  _289
REMARK  105  A    between atoms: _292  and  _294
REMARK  106  A    between atoms: _294  and  _295
REMARK  107  A    between atoms: _294  and  _297
REMARK  108  A    between atoms: _297  and  _298
REMARK  109  A    between atoms: _301  and  _303
REMARK  110  A    between atoms: _303  and  _304
REMARK  111  A    between atoms: _307  and  _309
REMARK  112  A    between atoms: _309  and  _310
REMARK  113  A    between atoms: _309  and  _312
REMARK  114  A    between atoms: _312  and  _313
REMARK  115  A    between atoms: _318  and  _319
REMARK  116  A    between atoms: _321  and  _323
REMARK  117  A    between atoms: _323  and  _324
REMARK  118  A    between atoms: _323  and  _326
REMARK  119  A    between atoms: _326  and  _327
REMARK  120  A    between atoms: _327  and  _328
REMARK  121  A    between atoms: _328  and  _329
REMARK  122  A    between atoms: _338  and  _340
REMARK  123  A    between atoms: _340  and  _341
REMARK  124  A    between atoms: _343  and  _345
REMARK  125  A    between atoms: _345  and  _346
REMARK  126  A    between atoms: _345  and  _348
REMARK  127  A    between atoms: _348  and  _349
REMARK                            x       y       z     vdW  Elec       q    Type
REMARK                         _______ _______ _______ _____ _____    ______ ____
ROOT
ATOM      1  O   HOH     1      34.248  67.855  12.335  0.00  0.00    +0.000 OA
ENDROOT
TORSDOF 0
REMARK  Name = ../refined-set-2016/3dx3/3dx3_pocket.pdb
REMARK  127 active torsions:
REMARK  status: ('A' for Active; 'I' for Inactive)
REMARK    1  A    between atoms: _1  and  _3
REMARK    2  A    between atoms: _14  and  _17
REMARK    3  A    between atoms: _17  and  _18
REMARK    4  A    between atoms: _25  and  _26
REMARK    5  A    between atoms: _33  and  _34
REMARK    6  A    between atoms: _39  and  _41
REMARK    7  A    between atoms: _41  and  _42
REMARK    8  A    between atoms: _44  and  _46
REMARK    9  A    between atoms: _46  and  _47
REMARK   10  A    between atoms: _46  and  _49
REMARK   11  A    between atoms: _49  and  _50
REMARK   12  A    between atoms: _60  and  _62
REMARK   13  A    between atoms: _62  and  _63
REMARK   14  A    between atoms: _62  and  _65
REMARK   15  A    between atoms: _65  and  _66
REMARK   16  A    between atoms: _69  and  _71
REMARK   17  A    between atoms: _71  and  _72
REMARK   18  A    between atoms: _71  and  _74
REMARK   19  A    between atoms: _74  and  _75
REMARK   20  A    between atoms: _80  and  _81
REMARK   21  A    between atoms: _83  and  _85
REMARK   22  A    between atoms: _85  and  _86
REMARK   23  A    between atoms: _85  and  _88
REMARK   24  A    between atoms: _88  and  _89
REMARK   25  A    between atoms: _89  and  _90
REMARK   26  A    between atoms: _93  and  _95
REMARK   27  A    between atoms: _95  and  _96
REMARK   28  A    between atoms: _95  and  _98
REMARK   29  A    between atoms: _98  and  _99
REMARK   30  A    between atoms: _99  and  _100
REMARK   31  A    between atoms: _102  and  _104
REMARK   32  A    between atoms: _104  and  _105
REMARK   33  A    between atoms: _104  and  _107
REMARK   34  A    between atoms: _107  and  _108
REMARK   35  A    between atoms: _111  and  _113
REMARK   36  A    between atoms: _113  and  _114
REMARK   37  A    between atoms: _113  and  _116
REMARK   38  A    between atoms: _116  and  _117
REMARK   39  A    between atoms: _117  and  _119
REMARK   40  A    between atoms: _119  and  ZN_352
REMARK   41  A    between atoms: _121  and  _122
REMARK   42  A    between atoms: _127  and  _129
REMARK   43  A    between atoms: _129  and  _130
REMARK   44  A    between atoms: _129  and  _132
REMARK   45  A    between atoms: _132  and  _133
REMARK   46  A    between atoms: _139  and  _141
REMARK   47  A    between atoms: _141  and  _142
REMARK   48  A    between atoms: _141  and  _144
REMARK   49  A    between atoms: _144  and  _145
REMARK   50  A    between atoms: _145  and  _146
REMARK   51  A    between atoms: _146  and  _147
REMARK   52  A    between atoms: _156  and  _158
REMARK   53  A    between atoms: _158  and  _159
REMARK   54  A    between atoms: _158  and  _161
REMARK   55  A    between atoms: _161  and  _162
REMARK   56  A    between atoms: _164  and  _166
REMARK   57  A    between atoms: _166  and  _167
REMARK   58  A    between atoms: _166  and  _169
REMARK   59  A    between atoms: _169  and  _170
REMARK   60  A    between atoms: _175  and  _176
REMARK   61  A    between atoms: _178  and  _180
REMARK   62  A    between atoms: _180  and  _181
REMARK   63  A    between atoms: _180  and  _183
REMARK   64  A    between atoms: _183  and  _184
REMARK   65  A    between atoms: _187  and  _189
REMARK   66  A    between atoms: _189  and  _190
REMARK   67  A    between atoms: _189  and  _192
REMARK   68  A    between atoms: _192  and  _193
REMARK   69  A    between atoms: _196  and  _198
REMARK   70  A    between atoms: _198  and  _199
REMARK   71  A    between atoms: _198  and  _201
REMARK   72  A    between atoms: _201  and  _202
REMARK   73  A    between atoms: _208  and  _210
REMARK   74  A    between atoms: _210  and  _211
REMARK   75  A    between atoms: _210  and  _213
REMARK   76  A    between atoms: _213  and  _214
REMARK   77  A    between atoms: _219  and  _220
REMARK   78  A    between atoms: _222  and  _224
REMARK   79  A    between atoms: _224  and  _225
REMARK   80  A    between atoms: _224  and  _227
REMARK   81  A    between atoms: _227  and  _228
REMARK   82  A    between atoms: _231  and  _233
REMARK   83  A    between atoms: _233  and  _234
REMARK   84  A    between atoms: _233  and  _236
REMARK   85  A    between atoms: _236  and  _237
REMARK   86  A    between atoms: _247  and  _249
REMARK   87  A    between atoms: _249  and  _250
REMARK   88  A    between atoms: _249  and  _252
REMARK   89  A    between atoms: _252  and  _253
REMARK   90  A    between atoms: _258  and  _260
REMARK   91  A    between atoms: _260  and  _261
REMARK   92  A    between atoms: _260  and  _263
REMARK   93  A    between atoms: _263  and  _264
REMARK   94  A    between atoms: _268  and  ZN_352
REMARK   95  A    between atoms: _269  and  _271
REMARK   96  A    between atoms: _271  and  _272
REMARK   97  A    between atoms: _271  and  _274
REMARK   98  A    between atoms: _274  and  _275
REMARK   99  A    between atoms: _278  and  _280
REMARK  100  A    between atoms: _280  and  _281
REMARK  101  A    between atoms: _283  and  _285
REMARK  102  A    between atoms: _285  and  _286
REMARK  103  A    between atoms: _285  and  _288
REMARK  104  A    between atoms: _288  and  _289
REMARK  105  A    between atoms: _292  and  _294
REMARK  106  A    between atoms: _294  and  _295
REMARK  107  A    between atoms: _294  and  _297
REMARK  108  A    between atoms: _297  and  _298
REMARK  109  A    between atoms: _301  and  _303
REMARK  110  A    between atoms: _303  and  _304
REMARK  111  A    between atoms: _307  and  _309
REMARK  112  A    between atoms: _309  and  _310
REMARK  113  A    between atoms: _309  and  _312
REMARK  114  A    between atoms: _312  and  _313
REMARK  115  A    between atoms: _318  and  _319
REMARK  116  A    between atoms: _321  and  _323
REMARK  117  A    between atoms: _323  and  _324
REMARK  118  A    between atoms: _323  and  _326
REMARK  119  A    between atoms: _326  and  _327
REMARK  120  A    between atoms: _327  and  _328
REMARK  121  A    between atoms: _328  and  _329
REMARK  122  A    between atoms: _338  and  _340
REMARK  123  A    between atoms: _340  and  _341
REMARK  124  A    between atoms: _343  and  _345
REMARK  125  A    between atoms: _345  and  _346
REMARK  126  A    between atoms: _345  and  _348
REMARK  127  A    between atoms: _348  and  _349
REMARK                            x       y       z     vdW  Elec       q    Type
REMARK                         _______ _______ _______ _____ _____    ______ ____
ROOT
ATOM      1  O   HOH     1      30.999  68.576  14.027  0.00  0.00    +0.000 OA
ENDROOT
TORSDOF 0
REMARK  Name = ../refined-set-2016/3dx3/3dx3_pocket.pdb
REMARK  127 active torsions:
REMARK  status: ('A' for Active; 'I' for Inactive)
REMARK    1  A    between atoms: _1  and  _3
REMARK    2  A    between atoms: _14  and  _17
REMARK    3  A    between atoms: _17  and  _18
REMARK    4  A    between atoms: _25  and  _26
REMARK    5  A    between atoms: _33  and  _34
REMARK    6  A    between atoms: _39  and  _41
REMARK    7  A    between atoms: _41  and  _42
REMARK    8  A    between atoms: _44  and  _46
REMARK    9  A    between atoms: _46  and  _47
REMARK   10  A    between atoms: _46  and  _49
REMARK   11  A    between atoms: _49  and  _50
REMARK   12  A    between atoms: _60  and  _62
REMARK   13  A    between atoms: _62  and  _63
REMARK   14  A    between atoms: _62  and  _65
REMARK   15  A    between atoms: _65  and  _66
REMARK   16  A    between atoms: _69  and  _71
REMARK   17  A    between atoms: _71  and  _72
REMARK   18  A    between atoms: _71  and  _74
REMARK   19  A    between atoms: _74  and  _75
REMARK   20  A    between atoms: _80  and  _81
REMARK   21  A    between atoms: _83  and  _85
REMARK   22  A    between atoms: _85  and  _86
REMARK   23  A    between atoms: _85  and  _88
REMARK   24  A    between atoms: _88  and  _89
REMARK   25  A    between atoms: _89  and  _90
REMARK   26  A    between atoms: _93  and  _95
REMARK   27  A    between atoms: _95  and  _96
REMARK   28  A    between atoms: _95  and  _98
REMARK   29  A    between atoms: _98  and  _99
REMARK   30  A    between atoms: _99  and  _100
REMARK   31  A    between atoms: _102  and  _104
REMARK   32  A    between atoms: _104  and  _105
REMARK   33  A    between atoms: _104  and  _107
REMARK   34  A    between atoms: _107  and  _108
REMARK   35  A    between atoms: _111  and  _113
REMARK   36  A    between atoms: _113  and  _114
REMARK   37  A    between atoms: _113  and  _116
REMARK   38  A    between atoms: _116  and  _117
REMARK   39  A    between atoms: _117  and  _119
REMARK   40  A    between atoms: _119  and  ZN_352
REMARK   41  A    between atoms: _121  and  _122
REMARK   42  A    between atoms: _127  and  _129
REMARK   43  A    between atoms: _129  and  _130
REMARK   44  A    between atoms: _129  and  _132
REMARK   45  A    between atoms: _132  and  _133
REMARK   46  A    between atoms: _139  and  _141
REMARK   47  A    between atoms: _141  and  _142
REMARK   48  A    between atoms: _141  and  _144
REMARK   49  A    between atoms: _144  and  _145
REMARK   50  A    between atoms: _145  and  _146
REMARK   51  A    between atoms: _146  and  _147
REMARK   52  A    between atoms: _156  and  _158
REMARK   53  A    between atoms: _158  and  _159
REMARK   54  A    between atoms: _158  and  _161
REMARK   55  A    between atoms: _161  and  _162
REMARK   56  A    between atoms: _164  and  _166
REMARK   57  A    between atoms: _166  and  _167
REMARK   58  A    between atoms: _166  and  _169
REMARK   59  A    between atoms: _169  and  _170
REMARK   60  A    between atoms: _175  and  _176
REMARK   61  A    between atoms: _178  and  _180
REMARK   62  A    between atoms: _180  and  _181
REMARK   63  A    between atoms: _180  and  _183
REMARK   64  A    between atoms: _183  and  _184
REMARK   65  A    between atoms: _187  and  _189
REMARK   66  A    between atoms: _189  and  _190
REMARK   67  A    between atoms: _189  and  _192
REMARK   68  A    between atoms: _192  and  _193
REMARK   69  A    between atoms: _196  and  _198
REMARK   70  A    between atoms: _198  and  _199
REMARK   71  A    between atoms: _198  and  _201
REMARK   72  A    between atoms: _201  and  _202
REMARK   73  A    between atoms: _208  and  _210
REMARK   74  A    between atoms: _210  and  _211
REMARK   75  A    between atoms: _210  and  _213
REMARK   76  A    between atoms: _213  and  _214
REMARK   77  A    between atoms: _219  and  _220
REMARK   78  A    between atoms: _222  and  _224
REMARK   79  A    between atoms: _224  and  _225
REMARK   80  A    between atoms: _224  and  _227
REMARK   81  A    between atoms: _227  and  _228
REMARK   82  A    between atoms: _231  and  _233
REMARK   83  A    between atoms: _233  and  _234
REMARK   84  A    between atoms: _233  and  _236
REMARK   85  A    between atoms: _236  and  _237
REMARK   86  A    between atoms: _247  and  _249
REMARK   87  A    between atoms: _249  and  _250
REMARK   88  A    between atoms: _249  and  _252
REMARK   89  A    between atoms: _252  and  _253
REMARK   90  A    between atoms: _258  and  _260
REMARK   91  A    between atoms: _260  and  _261
REMARK   92  A    between atoms: _260  and  _263
REMARK   93  A    between atoms: _263  and  _264
REMARK   94  A    between atoms: _268  and  ZN_352
REMARK   95  A    between atoms: _269  and  _271
REMARK   96  A    between atoms: _271  and  _272
REMARK   97  A    between atoms: _271  and  _274
REMARK   98  A    between atoms: _274  and  _275
REMARK   99  A    between atoms: _278  and  _280
REMARK  100  A    between atoms: _280  and  _281
REMARK  101  A    between atoms: _283  and  _285
REMARK  102  A    between atoms: _285  and  _286
REMARK  103  A    between atoms: _285  and  _288
REMARK  104  A    between atoms: _288  and  _289
REMARK  105  A    between atoms: _292  and  _294
REMARK  106  A    between atoms: _294  and  _295
REMARK  107  A    between atoms: _294  and  _297
REMARK  108  A    between atoms: _297  and  _298
REMARK  109  A    between atoms: _301  and  _303
REMARK  110  A    between atoms: _303  and  _304
REMARK  111  A    between atoms: _307  and  _309
REMARK  112  A    between atoms: _309  and  _310
REMARK  113  A    between atoms: _309  and  _312
REMARK  114  A    between atoms: _312  and  _313
REMARK  115  A    between atoms: _318  and  _319
REMARK  116  A    between atoms: _321  and  _323
REMARK  117  A    between atoms: _323  and  _324
REMARK  118  A    between atoms: _323  and  _326
REMARK  119  A    between atoms: _326  and  _327
REMARK  120  A    between atoms: _327  and  _328
REMARK  121  A    between atoms: _328  and  _329
REMARK  122  A    between atoms: _338  and  _340
REMARK  123  A    between atoms: _340  and  _341
REMARK  124  A    between atoms: _343  and  _345
REMARK  125  A    between atoms: _345  and  _346
REMARK  126  A    between atoms: _345  and  _348
REMARK  127  A    between atoms: _348  and  _349
REMARK                            x       y       z     vdW  Elec       q    Type
REMARK                         _______ _______ _______ _____ _____    ______ ____
ROOT
ATOM      1  O   HOH     1      28.546  69.892  12.483  0.00  0.00    +0.000 OA
ENDROOT
TORSDOF 0
REMARK  Name = ../refined-set-2016/3dx3/3dx3_pocket.pdb
REMARK  127 active torsions:
REMARK  status: ('A' for Active; 'I' for Inactive)
REMARK    1  A    between atoms: _1  and  _3
REMARK    2  A    between atoms: _14  and  _17
REMARK    3  A    between atoms: _17  and  _18
REMARK    4  A    between atoms: _25  and  _26
REMARK    5  A    between atoms: _33  and  _34
REMARK    6  A    between atoms: _39  and  _41
REMARK    7  A    between atoms: _41  and  _42
REMARK    8  A    between atoms: _44  and  _46
REMARK    9  A    between atoms: _46  and  _47
REMARK   10  A    between atoms: _46  and  _49
REMARK   11  A    between atoms: _49  and  _50
REMARK   12  A    between atoms: _60  and  _62
REMARK   13  A    between atoms: _62  and  _63
REMARK   14  A    between atoms: _62  and  _65
REMARK   15  A    between atoms: _65  and  _66
REMARK   16  A    between atoms: _69  and  _71
REMARK   17  A    between atoms: _71  and  _72
REMARK   18  A    between atoms: _71  and  _74
REMARK   19  A    between atoms: _74  and  _75
REMARK   20  A    between atoms: _80  and  _81
REMARK   21  A    between atoms: _83  and  _85
REMARK   22  A    between atoms: _85  and  _86
REMARK   23  A    between atoms: _85  and  _88
REMARK   24  A    between atoms: _88  and  _89
REMARK   25  A    between atoms: _89  and  _90
REMARK   26  A    between atoms: _93  and  _95
REMARK   27  A    between atoms: _95  and  _96
REMARK   28  A    between atoms: _95  and  _98
REMARK   29  A    between atoms: _98  and  _99
REMARK   30  A    between atoms: _99  and  _100
REMARK   31  A    between atoms: _102  and  _104
REMARK   32  A    between atoms: _104  and  _105
REMARK   33  A    between atoms: _104  and  _107
REMARK   34  A    between atoms: _107  and  _108
REMARK   35  A    between atoms: _111  and  _113
REMARK   36  A    between atoms: _113  and  _114
REMARK   37  A    between atoms: _113  and  _116
REMARK   38  A    between atoms: _116  and  _117
REMARK   39  A    between atoms: _117  and  _119
REMARK   40  A    between atoms: _119  and  ZN_352
REMARK   41  A    between atoms: _121  and  _122
REMARK   42  A    between atoms: _127  and  _129
REMARK   43  A    between atoms: _129  and  _130
REMARK   44  A    between atoms: _129  and  _132
REMARK   45  A    between atoms: _132  and  _133
REMARK   46  A    between atoms: _139  and  _141
REMARK   47  A    between atoms: _141  and  _142
REMARK   48  A    between atoms: _141  and  _144
REMARK   49  A    between atoms: _144  and  _145
REMARK   50  A    between atoms: _145  and  _146
REMARK   51  A    between atoms: _146  and  _147
REMARK   52  A    between atoms: _156  and  _158
REMARK   53  A    between atoms: _158  and  _159
REMARK   54  A    between atoms: _158  and  _161
REMARK   55  A    between atoms: _161  and  _162
REMARK   56  A    between atoms: _164  and  _166
REMARK   57  A    between atoms: _166  and  _167
REMARK   58  A    between atoms: _166  and  _169
REMARK   59  A    between atoms: _169  and  _170
REMARK   60  A    between atoms: _175  and  _176
REMARK   61  A    between atoms: _178  and  _180
REMARK   62  A    between atoms: _180  and  _181
REMARK   63  A    between atoms: _180  and  _183
REMARK   64  A    between atoms: _183  and  _184
REMARK   65  A    between atoms: _187  and  _189
REMARK   66  A    between atoms: _189  and  _190
REMARK   67  A    between atoms: _189  and  _192
REMARK   68  A    between atoms: _192  and  _193
REMARK   69  A    between atoms: _196  and  _198
REMARK   70  A    between atoms: _198  and  _199
REMARK   71  A    between atoms: _198  and  _201
REMARK   72  A    between atoms: _201  and  _202
REMARK   73  A    between atoms: _208  and  _210
REMARK   74  A    between atoms: _210  and  _211
REMARK   75  A    between atoms: _210  and  _213
REMARK   76  A    between atoms: _213  and  _214
REMARK   77  A    between atoms: _219  and  _220
REMARK   78  A    between atoms: _222  and  _224
REMARK   79  A    between atoms: _224  and  _225
REMARK   80  A    between atoms: _224  and  _227
REMARK   81  A    between atoms: _227  and  _228
REMARK   82  A    between atoms: _231  and  _233
REMARK   83  A    between atoms: _233  and  _234
REMARK   84  A    between atoms: _233  and  _236
REMARK   85  A    between atoms: _236  and  _237
REMARK   86  A    between atoms: _247  and  _249
REMARK   87  A    between atoms: _249  and  _250
REMARK   88  A    between atoms: _249  and  _252
REMARK   89  A    between atoms: _252  and  _253
REMARK   90  A    between atoms: _258  and  _260
REMARK   91  A    between atoms: _260  and  _261
REMARK   92  A    between atoms: _260  and  _263
REMARK   93  A    between atoms: _263  and  _264
REMARK   94  A    between atoms: _268  and  ZN_352
REMARK   95  A    between atoms: _269  and  _271
REMARK   96  A    between atoms: _271  and  _272
REMARK   97  A    between atoms: _271  and  _274
REMARK   98  A    between atoms: _274  and  _275
REMARK   99  A    between atoms: _278  and  _280
REMARK  100  A    between atoms: _280  and  _281
REMARK  101  A    between atoms: _283  and  _285
REMARK  102  A    between atoms: _285  and  _286
REMARK  103  A    between atoms: _285  and  _288
REMARK  104  A    between atoms: _288  and  _289
REMARK  105  A    between atoms: _292  and  _294
REMARK  106  A    between atoms: _294  and  _295
REMARK  107  A    between atoms: _294  and  _297
REMARK  108  A    between atoms: _297  and  _298
REMARK  109  A    between atoms: _301  and  _303
REMARK  110  A    between atoms: _303  and  _304
REMARK  111  A    between atoms: _307  and  _309
REMARK  112  A    between atoms: _309  and  _310
REMARK  113  A    between atoms: _309  and  _312
REMARK  114  A    between atoms: _312  and  _313
REMARK  115  A    between atoms: _318  and  _319
REMARK  116  A    between atoms: _321  and  _323
REMARK  117  A    between atoms: _323  and  _324
REMARK  118  A    between atoms: _323  and  _326
REMARK  119  A    between atoms: _326  and  _327
REMARK  120  A    between atoms: _327  and  _328
REMARK  121  A    between atoms: _328  and  _329
REMARK  122  A    between atoms: _338  and  _340
REMARK  123  A    between atoms: _340  and  _341
REMARK  124  A    between atoms: _343  and  _345
REMARK  125  A    between atoms: _345  and  _346
REMARK  126  A    between atoms: _345  and  _348
REMARK  127  A    between atoms: _348  and  _349
REMARK                            x       y       z     vdW  Elec       q    Type
REMARK                         _______ _______ _______ _____ _____    ______ ____
ROOT
ATOM      1  O   HOH     1      28.145  67.412  11.161  0.00  0.00    +0.000 OA
ENDROOT
TORSDOF 0
REMARK  Name = ../refined-set-2016/3dx3/3dx3_pocket.pdb
REMARK  127 active torsions:
REMARK  status: ('A' for Active; 'I' for Inactive)
REMARK    1  A    between atoms: _1  and  _3
REMARK    2  A    between atoms: _14  and  _17
REMARK    3  A    between atoms: _17  and  _18
REMARK    4  A    between atoms: _25  and  _26
REMARK    5  A    between atoms: _33  and  _34
REMARK    6  A    between atoms: _39  and  _41
REMARK    7  A    between atoms: _41  and  _42
REMARK    8  A    between atoms: _44  and  _46
REMARK    9  A    between atoms: _46  and  _47
REMARK   10  A    between atoms: _46  and  _49
REMARK   11  A    between atoms: _49  and  _50
REMARK   12  A    between atoms: _60  and  _62
REMARK   13  A    between atoms: _62  and  _63
REMARK   14  A    between atoms: _62  and  _65
REMARK   15  A    between atoms: _65  and  _66
REMARK   16  A    between atoms: _69  and  _71
REMARK   17  A    between atoms: _71  and  _72
REMARK   18  A    between atoms: _71  and  _74
REMARK   19  A    between atoms: _74  and  _75
REMARK   20  A    between atoms: _80  and  _81
REMARK   21  A    between atoms: _83  and  _85
REMARK   22  A    between atoms: _85  and  _86
REMARK   23  A    between atoms: _85  and  _88
REMARK   24  A    between atoms: _88  and  _89
REMARK   25  A    between atoms: _89  and  _90
REMARK   26  A    between atoms: _93  and  _95
REMARK   27  A    between atoms: _95  and  _96
REMARK   28  A    between atoms: _95  and  _98
REMARK   29  A    between atoms: _98  and  _99
REMARK   30  A    between atoms: _99  and  _100
REMARK   31  A    between atoms: _102  and  _104
REMARK   32  A    between atoms: _104  and  _105
REMARK   33  A    between atoms: _104  and  _107
REMARK   34  A    between atoms: _107  and  _108
REMARK   35  A    between atoms: _111  and  _113
REMARK   36  A    between atoms: _113  and  _114
REMARK   37  A    between atoms: _113  and  _116
REMARK   38  A    between atoms: _116  and  _117
REMARK   39  A    between atoms: _117  and  _119
REMARK   40  A    between atoms: _119  and  ZN_352
REMARK   41  A    between atoms: _121  and  _122
REMARK   42  A    between atoms: _127  and  _129
REMARK   43  A    between atoms: _129  and  _130
REMARK   44  A    between atoms: _129  and  _132
REMARK   45  A    between atoms: _132  and  _133
REMARK   46  A    between atoms: _139  and  _141
REMARK   47  A    between atoms: _141  and  _142
REMARK   48  A    between atoms: _141  and  _144
REMARK   49  A    between atoms: _144  and  _145
REMARK   50  A    between atoms: _145  and  _146
REMARK   51  A    between atoms: _146  and  _147
REMARK   52  A    between atoms: _156  and  _158
REMARK   53  A    between atoms: _158  and  _159
REMARK   54  A    between atoms: _158  and  _161
REMARK   55  A    between atoms: _161  and  _162
REMARK   56  A    between atoms: _164  and  _166
REMARK   57  A    between atoms: _166  and  _167
REMARK   58  A    between atoms: _166  and  _169
REMARK   59  A    between atoms: _169  and  _170
REMARK   60  A    between atoms: _175  and  _176
REMARK   61  A    between atoms: _178  and  _180
REMARK   62  A    between atoms: _180  and  _181
REMARK   63  A    between atoms: _180  and  _183
REMARK   64  A    between atoms: _183  and  _184
REMARK   65  A    between atoms: _187  and  _189
REMARK   66  A    between atoms: _189  and  _190
REMARK   67  A    between atoms: _189  and  _192
REMARK   68  A    between atoms: _192  and  _193
REMARK   69  A    between atoms: _196  and  _198
REMARK   70  A    between atoms: _198  and  _199
REMARK   71  A    between atoms: _198  and  _201
REMARK   72  A    between atoms: _201  and  _202
REMARK   73  A    between atoms: _208  and  _210
REMARK   74  A    between atoms: _210  and  _211
REMARK   75  A    between atoms: _210  and  _213
REMARK   76  A    between atoms: _213  and  _214
REMARK   77  A    between atoms: _219  and  _220
REMARK   78  A    between atoms: _222  and  _224
REMARK   79  A    between atoms: _224  and  _225
REMARK   80  A    between atoms: _224  and  _227
REMARK   81  A    between atoms: _227  and  _228
REMARK   82  A    between atoms: _231  and  _233
REMARK   83  A    between atoms: _233  and  _234
REMARK   84  A    between atoms: _233  and  _236
REMARK   85  A    between atoms: _236  and  _237
REMARK   86  A    between atoms: _247  and  _249
REMARK   87  A    between atoms: _249  and  _250
REMARK   88  A    between atoms: _249  and  _252
REMARK   89  A    between atoms: _252  and  _253
REMARK   90  A    between atoms: _258  and  _260
REMARK   91  A    between atoms: _260  and  _261
REMARK   92  A    between atoms: _260  and  _263
REMARK   93  A    between atoms: _263  and  _264
REMARK   94  A    between atoms: _268  and  ZN_352
REMARK   95  A    between atoms: _269  and  _271
REMARK   96  A    between atoms: _271  and  _272
REMARK   97  A    between atoms: _271  and  _274
REMARK   98  A    between atoms: _274  and  _275
REMARK   99  A    between atoms: _278  and  _280
REMARK  100  A    between atoms: _280  and  _281
REMARK  101  A    between atoms: _283  and  _285
REMARK  102  A    between atoms: _285  and  _286
REMARK  103  A    between atoms: _285  and  _288
REMARK  104  A    between atoms: _288  and  _289
REMARK  105  A    between atoms: _292  and  _294
REMARK  106  A    between atoms: _294  and  _295
REMARK  107  A    between atoms: _294  and  _297
REMARK  108  A    between atoms: _297  and  _298
REMARK  109  A    between atoms: _301  and  _303
REMARK  110  A    between atoms: _303  and  _304
REMARK  111  A    between atoms: _307  and  _309
REMARK  112  A    between atoms: _309  and  _310
REMARK  113  A    between atoms: _309  and  _312
REMARK  114  A    between atoms: _312  and  _313
REMARK  115  A    between atoms: _318  and  _319
REMARK  116  A    between atoms: _321  and  _323
REMARK  117  A    between atoms: _323  and  _324
REMARK  118  A    between atoms: _323  and  _326
REMARK  119  A    between atoms: _326  and  _327
REMARK  120  A    between atoms: _327  and  _328
REMARK  121  A    between atoms: _328  and  _329
REMARK  122  A    between atoms: _338  and  _340
REMARK  123  A    between atoms: _340  and  _341
REMARK  124  A    between atoms: _343  and  _345
REMARK  125  A    between atoms: _345  and  _346
REMARK  126  A    between atoms: _345  and  _348
REMARK  127  A    between atoms: _348  and  _349
REMARK                            x       y       z     vdW  Elec       q    Type
REMARK                         _______ _______ _______ _____ _____    ______ ____
ROOT
ATOM      1  O   HOH     1      29.792  65.604  11.779  0.00  0.00    +0.000 OA
ENDROOT
TORSDOF 0
REMARK  Name = ../refined-set-2016/3dx3/3dx3_pocket.pdb
REMARK  127 active torsions:
REMARK  status: ('A' for Active; 'I' for Inactive)
REMARK    1  A    between atoms: _1  and  _3
REMARK    2  A    between atoms: _14  and  _17
REMARK    3  A    between atoms: _17  and  _18
REMARK    4  A    between atoms: _25  and  _26
REMARK    5  A    between atoms: _33  and  _34
REMARK    6  A    between atoms: _39  and  _41
REMARK    7  A    between atoms: _41  and  _42
REMARK    8  A    between atoms: _44  and  _46
REMARK    9  A    between atoms: _46  and  _47
REMARK   10  A    between atoms: _46  and  _49
REMARK   11  A    between atoms: _49  and  _50
REMARK   12  A    between atoms: _60  and  _62
REMARK   13  A    between atoms: _62  and  _63
REMARK   14  A    between atoms: _62  and  _65
REMARK   15  A    between atoms: _65  and  _66
REMARK   16  A    between atoms: _69  and  _71
REMARK   17  A    between atoms: _71  and  _72
REMARK   18  A    between atoms: _71  and  _74
REMARK   19  A    between atoms: _74  and  _75
REMARK   20  A    between atoms: _80  and  _81
REMARK   21  A    between atoms: _83  and  _85
REMARK   22  A    between atoms: _85  and  _86
REMARK   23  A    between atoms: _85  and  _88
REMARK   24  A    between atoms: _88  and  _89
REMARK   25  A    between atoms: _89  and  _90
REMARK   26  A    between atoms: _93  and  _95
REMARK   27  A    between atoms: _95  and  _96
REMARK   28  A    between atoms: _95  and  _98
REMARK   29  A    between atoms: _98  and  _99
REMARK   30  A    between atoms: _99  and  _100
REMARK   31  A    between atoms: _102  and  _104
REMARK   32  A    between atoms: _104  and  _105
REMARK   33  A    between atoms: _104  and  _107
REMARK   34  A    between atoms: _107  and  _108
REMARK   35  A    between atoms: _111  and  _113
REMARK   36  A    between atoms: _113  and  _114
REMARK   37  A    between atoms: _113  and  _116
REMARK   38  A    between atoms: _116  and  _117
REMARK   39  A    between atoms: _117  and  _119
REMARK   40  A    between atoms: _119  and  ZN_352
REMARK   41  A    between atoms: _121  and  _122
REMARK   42  A    between atoms: _127  and  _129
REMARK   43  A    between atoms: _129  and  _130
REMARK   44  A    between atoms: _129  and  _132
REMARK   45  A    between atoms: _132  and  _133
REMARK   46  A    between atoms: _139  and  _141
REMARK   47  A    between atoms: _141  and  _142
REMARK   48  A    between atoms: _141  and  _144
REMARK   49  A    between atoms: _144  and  _145
REMARK   50  A    between atoms: _145  and  _146
REMARK   51  A    between atoms: _146  and  _147
REMARK   52  A    between atoms: _156  and  _158
REMARK   53  A    between atoms: _158  and  _159
REMARK   54  A    between atoms: _158  and  _161
REMARK   55  A    between atoms: _161  and  _162
REMARK   56  A    between atoms: _164  and  _166
REMARK   57  A    between atoms: _166  and  _167
REMARK   58  A    between atoms: _166  and  _169
REMARK   59  A    between atoms: _169  and  _170
REMARK   60  A    between atoms: _175  and  _176
REMARK   61  A    between atoms: _178  and  _180
REMARK   62  A    between atoms: _180  and  _181
REMARK   63  A    between atoms: _180  and  _183
REMARK   64  A    between atoms: _183  and  _184
REMARK   65  A    between atoms: _187  and  _189
REMARK   66  A    between atoms: _189  and  _190
REMARK   67  A    between atoms: _189  and  _192
REMARK   68  A    between atoms: _192  and  _193
REMARK   69  A    between atoms: _196  and  _198
REMARK   70  A    between atoms: _198  and  _199
REMARK   71  A    between atoms: _198  and  _201
REMARK   72  A    between atoms: _201  and  _202
REMARK   73  A    between atoms: _208  and  _210
REMARK   74  A    between atoms: _210  and  _211
REMARK   75  A    between atoms: _210  and  _213
REMARK   76  A    between atoms: _213  and  _214
REMARK   77  A    between atoms: _219  and  _220
REMARK   78  A    between atoms: _222  and  _224
REMARK   79  A    between atoms: _224  and  _225
REMARK   80  A    between atoms: _224  and  _227
REMARK   81  A    between atoms: _227  and  _228
REMARK   82  A    between atoms: _231  and  _233
REMARK   83  A    between atoms: _233  and  _234
REMARK   84  A    between atoms: _233  and  _236
REMARK   85  A    between atoms: _236  and  _237
REMARK   86  A    between atoms: _247  and  _249
REMARK   87  A    between atoms: _249  and  _250
REMARK   88  A    between atoms: _249  and  _252
REMARK   89  A    between atoms: _252  and  _253
REMARK   90  A    between atoms: _258  and  _260
REMARK   91  A    between atoms: _260  and  _261
REMARK   92  A    between atoms: _260  and  _263
REMARK   93  A    between atoms: _263  and  _264
REMARK   94  A    between atoms: _268  and  ZN_352
REMARK   95  A    between atoms: _269  and  _271
REMARK   96  A    between atoms: _271  and  _272
REMARK   97  A    between atoms: _271  and  _274
REMARK   98  A    between atoms: _274  and  _275
REMARK   99  A    between atoms: _278  and  _280
REMARK  100  A    between atoms: _280  and  _281
REMARK  101  A    between atoms: _283  and  _285
REMARK  102  A    between atoms: _285  and  _286
REMARK  103  A    between atoms: _285  and  _288
REMARK  104  A    between atoms: _288  and  _289
REMARK  105  A    between atoms: _292  and  _294
REMARK  106  A    between atoms: _294  and  _295
REMARK  107  A    between atoms: _294  and  _297
REMARK  108  A    between atoms: _297  and  _298
REMARK  109  A    between atoms: _301  and  _303
REMARK  110  A    between atoms: _303  and  _304
REMARK  111  A    between atoms: _307  and  _309
REMARK  112  A    between atoms: _309  and  _310
REMARK  113  A    between atoms: _309  and  _312
REMARK  114  A    between atoms: _312  and  _313
REMARK  115  A    between atoms: _318  and  _319
REMARK  116  A    between atoms: _321  and  _323
REMARK  117  A    between atoms: _323  and  _324
REMARK  118  A    between atoms: _323  and  _326
REMARK  119  A    between atoms: _326  and  _327
REMARK  120  A    between atoms: _327  and  _328
REMARK  121  A    between atoms: _328  and  _329
REMARK  122  A    between atoms: _338  and  _340
REMARK  123  A    between atoms: _340  and  _341
REMARK  124  A    between atoms: _343  and  _345
REMARK  125  A    between atoms: _345  and  _346
REMARK  126  A    between atoms: _345  and  _348
REMARK  127  A    between atoms: _348  and  _349
REMARK                            x       y       z     vdW  Elec       q    Type
REMARK                         _______ _______ _______ _____ _____    ______ ____
ROOT
ATOM      1  O   HOH     1      28.304  63.949  10.075  0.00  0.00    +0.000 OA
ENDROOT
TORSDOF 0
REMARK  Name = ../refined-set-2016/3dx3/3dx3_pocket.pdb
REMARK  127 active torsions:
REMARK  status: ('A' for Active; 'I' for Inactive)
REMARK    1  A    between atoms: _1  and  _3
REMARK    2  A    between atoms: _14  and  _17
REMARK    3  A    between atoms: _17  and  _18
REMARK    4  A    between atoms: _25  and  _26
REMARK    5  A    between atoms: _33  and  _34
REMARK    6  A    between atoms: _39  and  _41
REMARK    7  A    between atoms: _41  and  _42
REMARK    8  A    between atoms: _44  and  _46
REMARK    9  A    between atoms: _46  and  _47
REMARK   10  A    between atoms: _46  and  _49
REMARK   11  A    between atoms: _49  and  _50
REMARK   12  A    between atoms: _60  and  _62
REMARK   13  A    between atoms: _62  and  _63
REMARK   14  A    between atoms: _62  and  _65
REMARK   15  A    between atoms: _65  and  _66
REMARK   16  A    between atoms: _69  and  _71
REMARK   17  A    between atoms: _71  and  _72
REMARK   18  A    between atoms: _71  and  _74
REMARK   19  A    between atoms: _74  and  _75
REMARK   20  A    between atoms: _80  and  _81
REMARK   21  A    between atoms: _83  and  _85
REMARK   22  A    between atoms: _85  and  _86
REMARK   23  A    between atoms: _85  and  _88
REMARK   24  A    between atoms: _88  and  _89
REMARK   25  A    between atoms: _89  and  _90
REMARK   26  A    between atoms: _93  and  _95
REMARK   27  A    between atoms: _95  and  _96
REMARK   28  A    between atoms: _95  and  _98
REMARK   29  A    between atoms: _98  and  _99
REMARK   30  A    between atoms: _99  and  _100
REMARK   31  A    between atoms: _102  and  _104
REMARK   32  A    between atoms: _104  and  _105
REMARK   33  A    between atoms: _104  and  _107
REMARK   34  A    between atoms: _107  and  _108
REMARK   35  A    between atoms: _111  and  _113
REMARK   36  A    between atoms: _113  and  _114
REMARK   37  A    between atoms: _113  and  _116
REMARK   38  A    between atoms: _116  and  _117
REMARK   39  A    between atoms: _117  and  _119
REMARK   40  A    between atoms: _119  and  ZN_352
REMARK   41  A    between atoms: _121  and  _122
REMARK   42  A    between atoms: _127  and  _129
REMARK   43  A    between atoms: _129  and  _130
REMARK   44  A    between atoms: _129  and  _132
REMARK   45  A    between atoms: _132  and  _133
REMARK   46  A    between atoms: _139  and  _141
REMARK   47  A    between atoms: _141  and  _142
REMARK   48  A    between atoms: _141  and  _144
REMARK   49  A    between atoms: _144  and  _145
REMARK   50  A    between atoms: _145  and  _146
REMARK   51  A    between atoms: _146  and  _147
REMARK   52  A    between atoms: _156  and  _158
REMARK   53  A    between atoms: _158  and  _159
REMARK   54  A    between atoms: _158  and  _161
REMARK   55  A    between atoms: _161  and  _162
REMARK   56  A    between atoms: _164  and  _166
REMARK   57  A    between atoms: _166  and  _167
REMARK   58  A    between atoms: _166  and  _169
REMARK   59  A    between atoms: _169  and  _170
REMARK   60  A    between atoms: _175  and  _176
REMARK   61  A    between atoms: _178  and  _180
REMARK   62  A    between atoms: _180  and  _181
REMARK   63  A    between atoms: _180  and  _183
REMARK   64  A    between atoms: _183  and  _184
REMARK   65  A    between atoms: _187  and  _189
REMARK   66  A    between atoms: _189  and  _190
REMARK   67  A    between atoms: _189  and  _192
REMARK   68  A    between atoms: _192  and  _193
REMARK   69  A    between atoms: _196  and  _198
REMARK   70  A    between atoms: _198  and  _199
REMARK   71  A    between atoms: _198  and  _201
REMARK   72  A    between atoms: _201  and  _202
REMARK   73  A    between atoms: _208  and  _210
REMARK   74  A    between atoms: _210  and  _211
REMARK   75  A    between atoms: _210  and  _213
REMARK   76  A    between atoms: _213  and  _214
REMARK   77  A    between atoms: _219  and  _220
REMARK   78  A    between atoms: _222  and  _224
REMARK   79  A    between atoms: _224  and  _225
REMARK   80  A    between atoms: _224  and  _227
REMARK   81  A    between atoms: _227  and  _228
REMARK   82  A    between atoms: _231  and  _233
REMARK   83  A    between atoms: _233  and  _234
REMARK   84  A    between atoms: _233  and  _236
REMARK   85  A    between atoms: _236  and  _237
REMARK   86  A    between atoms: _247  and  _249
REMARK   87  A    between atoms: _249  and  _250
REMARK   88  A    between atoms: _249  and  _252
REMARK   89  A    between atoms: _252  and  _253
REMARK   90  A    between atoms: _258  and  _260
REMARK   91  A    between atoms: _260  and  _261
REMARK   92  A    between atoms: _260  and  _263
REMARK   93  A    between atoms: _263  and  _264
REMARK   94  A    between atoms: _268  and  ZN_352
REMARK   95  A    between atoms: _269  and  _271
REMARK   96  A    between atoms: _271  and  _272
REMARK   97  A    between atoms: _271  and  _274
REMARK   98  A    between atoms: _274  and  _275
REMARK   99  A    between atoms: _278  and  _280
REMARK  100  A    between atoms: _280  and  _281
REMARK  101  A    between atoms: _283  and  _285
REMARK  102  A    between atoms: _285  and  _286
REMARK  103  A    between atoms: _285  and  _288
REMARK  104  A    between atoms: _288  and  _289
REMARK  105  A    between atoms: _292  and  _294
REMARK  106  A    between atoms: _294  and  _295
REMARK  107  A    between atoms: _294  and  _297
REMARK  108  A    between atoms: _297  and  _298
REMARK  109  A    between atoms: _301  and  _303
REMARK  110  A    between atoms: _303  and  _304
REMARK  111  A    between atoms: _307  and  _309
REMARK  112  A    between atoms: _309  and  _310
REMARK  113  A    between atoms: _309  and  _312
REMARK  114  A    between atoms: _312  and  _313
REMARK  115  A    between atoms: _318  and  _319
REMARK  116  A    between atoms: _321  and  _323
REMARK  117  A    between atoms: _323  and  _324
REMARK  118  A    between atoms: _323  and  _326
REMARK  119  A    between atoms: _326  and  _327
REMARK  120  A    between atoms: _327  and  _328
REMARK  121  A    between atoms: _328  and  _329
REMARK  122  A    between atoms: _338  and  _340
REMARK  123  A    between atoms: _340  and  _341
REMARK  124  A    between atoms: _343  and  _345
REMARK  125  A    between atoms: _345  and  _346
REMARK  126  A    between atoms: _345  and  _348
REMARK  127  A    between atoms: _348  and  _349
REMARK                            x       y       z     vdW  Elec       q    Type
REMARK                         _______ _______ _______ _____ _____    ______ ____
ROOT
ATOM      1  O   HOH     1      27.314  61.288  10.131  0.00  0.00    +0.000 OA
ENDROOT
TORSDOF 0
REMARK  Name = ../refined-set-2016/3dx3/3dx3_pocket.pdb
REMARK  127 active torsions:
REMARK  status: ('A' for Active; 'I' for Inactive)
REMARK    1  A    between atoms: _1  and  _3
REMARK    2  A    between atoms: _14  and  _17
REMARK    3  A    between atoms: _17  and  _18
REMARK    4  A    between atoms: _25  and  _26
REMARK    5  A    between atoms: _33  and  _34
REMARK    6  A    between atoms: _39  and  _41
REMARK    7  A    between atoms: _41  and  _42
REMARK    8  A    between atoms: _44  and  _46
REMARK    9  A    between atoms: _46  and  _47
REMARK   10  A    between atoms: _46  and  _49
REMARK   11  A    between atoms: _49  and  _50
REMARK   12  A    between atoms: _60  and  _62
REMARK   13  A    between atoms: _62  and  _63
REMARK   14  A    between atoms: _62  and  _65
REMARK   15  A    between atoms: _65  and  _66
REMARK   16  A    between atoms: _69  and  _71
REMARK   17  A    between atoms: _71  and  _72
REMARK   18  A    between atoms: _71  and  _74
REMARK   19  A    between atoms: _74  and  _75
REMARK   20  A    between atoms: _80  and  _81
REMARK   21  A    between atoms: _83  and  _85
REMARK   22  A    between atoms: _85  and  _86
REMARK   23  A    between atoms: _85  and  _88
REMARK   24  A    between atoms: _88  and  _89
REMARK   25  A    between atoms: _89  and  _90
REMARK   26  A    between atoms: _93  and  _95
REMARK   27  A    between atoms: _95  and  _96
REMARK   28  A    between atoms: _95  and  _98
REMARK   29  A    between atoms: _98  and  _99
REMARK   30  A    between atoms: _99  and  _100
REMARK   31  A    between atoms: _102  and  _104
REMARK   32  A    between atoms: _104  and  _105
REMARK   33  A    between atoms: _104  and  _107
REMARK   34  A    between atoms: _107  and  _108
REMARK   35  A    between atoms: _111  and  _113
REMARK   36  A    between atoms: _113  and  _114
REMARK   37  A    between atoms: _113  and  _116
REMARK   38  A    between atoms: _116  and  _117
REMARK   39  A    between atoms: _117  and  _119
REMARK   40  A    between atoms: _119  and  ZN_352
REMARK   41  A    between atoms: _121  and  _122
REMARK   42  A    between atoms: _127  and  _129
REMARK   43  A    between atoms: _129  and  _130
REMARK   44  A    between atoms: _129  and  _132
REMARK   45  A    between atoms: _132  and  _133
REMARK   46  A    between atoms: _139  and  _141
REMARK   47  A    between atoms: _141  and  _142
REMARK   48  A    between atoms: _141  and  _144
REMARK   49  A    between atoms: _144  and  _145
REMARK   50  A    between atoms: _145  and  _146
REMARK   51  A    between atoms: _146  and  _147
REMARK   52  A    between atoms: _156  and  _158
REMARK   53  A    between atoms: _158  and  _159
REMARK   54  A    between atoms: _158  and  _161
REMARK   55  A    between atoms: _161  and  _162
REMARK   56  A    between atoms: _164  and  _166
REMARK   57  A    between atoms: _166  and  _167
REMARK   58  A    between atoms: _166  and  _169
REMARK   59  A    between atoms: _169  and  _170
REMARK   60  A    between atoms: _175  and  _176
REMARK   61  A    between atoms: _178  and  _180
REMARK   62  A    between atoms: _180  and  _181
REMARK   63  A    between atoms: _180  and  _183
REMARK   64  A    between atoms: _183  and  _184
REMARK   65  A    between atoms: _187  and  _189
REMARK   66  A    between atoms: _189  and  _190
REMARK   67  A    between atoms: _189  and  _192
REMARK   68  A    between atoms: _192  and  _193
REMARK   69  A    between atoms: _196  and  _198
REMARK   70  A    between atoms: _198  and  _199
REMARK   71  A    between atoms: _198  and  _201
REMARK   72  A    between atoms: _201  and  _202
REMARK   73  A    between atoms: _208  and  _210
REMARK   74  A    between atoms: _210  and  _211
REMARK   75  A    between atoms: _210  and  _213
REMARK   76  A    between atoms: _213  and  _214
REMARK   77  A    between atoms: _219  and  _220
REMARK   78  A    between atoms: _222  and  _224
REMARK   79  A    between atoms: _224  and  _225
REMARK   80  A    between atoms: _224  and  _227
REMARK   81  A    between atoms: _227  and  _228
REMARK   82  A    between atoms: _231  and  _233
REMARK   83  A    between atoms: _233  and  _234
REMARK   84  A    between atoms: _233  and  _236
REMARK   85  A    between atoms: _236  and  _237
REMARK   86  A    between atoms: _247  and  _249
REMARK   87  A    between atoms: _249  and  _250
REMARK   88  A    between atoms: _249  and  _252
REMARK   89  A    between atoms: _252  and  _253
REMARK   90  A    between atoms: _258  and  _260
REMARK   91  A    between atoms: _260  and  _261
REMARK   92  A    between atoms: _260  and  _263
REMARK   93  A    between atoms: _263  and  _264
REMARK   94  A    between atoms: _268  and  ZN_352
REMARK   95  A    between atoms: _269  and  _271
REMARK   96  A    between atoms: _271  and  _272
REMARK   97  A    between atoms: _271  and  _274
REMARK   98  A    between atoms: _274  and  _275
REMARK   99  A    between atoms: _278  and  _280
REMARK  100  A    between atoms: _280  and  _281
REMARK  101  A    between atoms: _283  and  _285
REMARK  102  A    between atoms: _285  and  _286
REMARK  103  A    between atoms: _285  and  _288
REMARK  104  A    between atoms: _288  and  _289
REMARK  105  A    between atoms: _292  and  _294
REMARK  106  A    between atoms: _294  and  _295
REMARK  107  A    between atoms: _294  and  _297
REMARK  108  A    between atoms: _297  and  _298
REMARK  109  A    between atoms: _301  and  _303
REMARK  110  A    between atoms: _303  and  _304
REMARK  111  A    between atoms: _307  and  _309
REMARK  112  A    between atoms: _309  and  _310
REMARK  113  A    between atoms: _309  and  _312
REMARK  114  A    between atoms: _312  and  _313
REMARK  115  A    between atoms: _318  and  _319
REMARK  116  A    between atoms: _321  and  _323
REMARK  117  A    between atoms: _323  and  _324
REMARK  118  A    between atoms: _323  and  _326
REMARK  119  A    between atoms: _326  and  _327
REMARK  120  A    between atoms: _327  and  _328
REMARK  121  A    between atoms: _328  and  _329
REMARK  122  A    between atoms: _338  and  _340
REMARK  123  A    between atoms: _340  and  _341
REMARK  124  A    between atoms: _343  and  _345
REMARK  125  A    between atoms: _345  and  _346
REMARK  126  A    between atoms: _345  and  _348
REMARK  127  A    between atoms: _348  and  _349
REMARK                            x       y       z     vdW  Elec       q    Type
REMARK                         _______ _______ _______ _____ _____    ______ ____
ROOT
ATOM      1  O   HOH     1      27.323  59.440   8.315  0.00  0.00    +0.000 OA
ENDROOT
TORSDOF 0
REMARK  Name = ../refined-set-2016/3dx3/3dx3_pocket.pdb
REMARK  127 active torsions:
REMARK  status: ('A' for Active; 'I' for Inactive)
REMARK    1  A    between atoms: _1  and  _3
REMARK    2  A    between atoms: _14  and  _17
REMARK    3  A    between atoms: _17  and  _18
REMARK    4  A    between atoms: _25  and  _26
REMARK    5  A    between atoms: _33  and  _34
REMARK    6  A    between atoms: _39  and  _41
REMARK    7  A    between atoms: _41  and  _42
REMARK    8  A    between atoms: _44  and  _46
REMARK    9  A    between atoms: _46  and  _47
REMARK   10  A    between atoms: _46  and  _49
REMARK   11  A    between atoms: _49  and  _50
REMARK   12  A    between atoms: _60  and  _62
REMARK   13  A    between atoms: _62  and  _63
REMARK   14  A    between atoms: _62  and  _65
REMARK   15  A    between atoms: _65  and  _66
REMARK   16  A    between atoms: _69  and  _71
REMARK   17  A    between atoms: _71  and  _72
REMARK   18  A    between atoms: _71  and  _74
REMARK   19  A    between atoms: _74  and  _75
REMARK   20  A    between atoms: _80  and  _81
REMARK   21  A    between atoms: _83  and  _85
REMARK   22  A    between atoms: _85  and  _86
REMARK   23  A    between atoms: _85  and  _88
REMARK   24  A    between atoms: _88  and  _89
REMARK   25  A    between atoms: _89  and  _90
REMARK   26  A    between atoms: _93  and  _95
REMARK   27  A    between atoms: _95  and  _96
REMARK   28  A    between atoms: _95  and  _98
REMARK   29  A    between atoms: _98  and  _99
REMARK   30  A    between atoms: _99  and  _100
REMARK   31  A    between atoms: _102  and  _104
REMARK   32  A    between atoms: _104  and  _105
REMARK   33  A    between atoms: _104  and  _107
REMARK   34  A    between atoms: _107  and  _108
REMARK   35  A    between atoms: _111  and  _113
REMARK   36  A    between atoms: _113  and  _114
REMARK   37  A    between atoms: _113  and  _116
REMARK   38  A    between atoms: _116  and  _117
REMARK   39  A    between atoms: _117  and  _119
REMARK   40  A    between atoms: _119  and  ZN_352
REMARK   41  A    between atoms: _121  and  _122
REMARK   42  A    between atoms: _127  and  _129
REMARK   43  A    between atoms: _129  and  _130
REMARK   44  A    between atoms: _129  and  _132
REMARK   45  A    between atoms: _132  and  _133
REMARK   46  A    between atoms: _139  and  _141
REMARK   47  A    between atoms: _141  and  _142
REMARK   48  A    between atoms: _141  and  _144
REMARK   49  A    between atoms: _144  and  _145
REMARK   50  A    between atoms: _145  and  _146
REMARK   51  A    between atoms: _146  and  _147
REMARK   52  A    between atoms: _156  and  _158
REMARK   53  A    between atoms: _158  and  _159
REMARK   54  A    between atoms: _158  and  _161
REMARK   55  A    between atoms: _161  and  _162
REMARK   56  A    between atoms: _164  and  _166
REMARK   57  A    between atoms: _166  and  _167
REMARK   58  A    between atoms: _166  and  _169
REMARK   59  A    between atoms: _169  and  _170
REMARK   60  A    between atoms: _175  and  _176
REMARK   61  A    between atoms: _178  and  _180
REMARK   62  A    between atoms: _180  and  _181
REMARK   63  A    between atoms: _180  and  _183
REMARK   64  A    between atoms: _183  and  _184
REMARK   65  A    between atoms: _187  and  _189
REMARK   66  A    between atoms: _189  and  _190
REMARK   67  A    between atoms: _189  and  _192
REMARK   68  A    between atoms: _192  and  _193
REMARK   69  A    between atoms: _196  and  _198
REMARK   70  A    between atoms: _198  and  _199
REMARK   71  A    between atoms: _198  and  _201
REMARK   72  A    between atoms: _201  and  _202
REMARK   73  A    between atoms: _208  and  _210
REMARK   74  A    between atoms: _210  and  _211
REMARK   75  A    between atoms: _210  and  _213
REMARK   76  A    between atoms: _213  and  _214
REMARK   77  A    between atoms: _219  and  _220
REMARK   78  A    between atoms: _222  and  _224
REMARK   79  A    between atoms: _224  and  _225
REMARK   80  A    between atoms: _224  and  _227
REMARK   81  A    between atoms: _227  and  _228
REMARK   82  A    between atoms: _231  and  _233
REMARK   83  A    between atoms: _233  and  _234
REMARK   84  A    between atoms: _233  and  _236
REMARK   85  A    between atoms: _236  and  _237
REMARK   86  A    between atoms: _247  and  _249
REMARK   87  A    between atoms: _249  and  _250
REMARK   88  A    between atoms: _249  and  _252
REMARK   89  A    between atoms: _252  and  _253
REMARK   90  A    between atoms: _258  and  _260
REMARK   91  A    between atoms: _260  and  _261
REMARK   92  A    between atoms: _260  and  _263
REMARK   93  A    between atoms: _263  and  _264
REMARK   94  A    between atoms: _268  and  ZN_352
REMARK   95  A    between atoms: _269  and  _271
REMARK   96  A    between atoms: _271  and  _272
REMARK   97  A    between atoms: _271  and  _274
REMARK   98  A    between atoms: _274  and  _275
REMARK   99  A    between atoms: _278  and  _280
REMARK  100  A    between atoms: _280  and  _281
REMARK  101  A    between atoms: _283  and  _285
REMARK  102  A    between atoms: _285  and  _286
REMARK  103  A    between atoms: _285  and  _288
REMARK  104  A    between atoms: _288  and  _289
REMARK  105  A    between atoms: _292  and  _294
REMARK  106  A    between atoms: _294  and  _295
REMARK  107  A    between atoms: _294  and  _297
REMARK  108  A    between atoms: _297  and  _298
REMARK  109  A    between atoms: _301  and  _303
REMARK  110  A    between atoms: _303  and  _304
REMARK  111  A    between atoms: _307  and  _309
REMARK  112  A    between atoms: _309  and  _310
REMARK  113  A    between atoms: _309  and  _312
REMARK  114  A    between atoms: _312  and  _313
REMARK  115  A    between atoms: _318  and  _319
REMARK  116  A    between atoms: _321  and  _323
REMARK  117  A    between atoms: _323  and  _324
REMARK  118  A    between atoms: _323  and  _326
REMARK  119  A    between atoms: _326  and  _327
REMARK  120  A    between atoms: _327  and  _328
REMARK  121  A    between atoms: _328  and  _329
REMARK  122  A    between atoms: _338  and  _340
REMARK  123  A    between atoms: _340  and  _341
REMARK  124  A    between atoms: _343  and  _345
REMARK  125  A    between atoms: _345  and  _346
REMARK  126  A    between atoms: _345  and  _348
REMARK  127  A    between atoms: _348  and  _349
REMARK                            x       y       z     vdW  Elec       q    Type
REMARK                         _______ _______ _______ _____ _____    ______ ____
ROOT
ATOM      1  O   HOH     1      24.668  61.615   9.118  0.00  0.00    +0.000 OA
ENDROOT
TORSDOF 0
REMARK  Name = ../refined-set-2016/3dx3/3dx3_pocket.pdb
REMARK  127 active torsions:
REMARK  status: ('A' for Active; 'I' for Inactive)
REMARK    1  A    between atoms: _1  and  _3
REMARK    2  A    between atoms: _14  and  _17
REMARK    3  A    between atoms: _17  and  _18
REMARK    4  A    between atoms: _25  and  _26
REMARK    5  A    between atoms: _33  and  _34
REMARK    6  A    between atoms: _39  and  _41
REMARK    7  A    between atoms: _41  and  _42
REMARK    8  A    between atoms: _44  and  _46
REMARK    9  A    between atoms: _46  and  _47
REMARK   10  A    between atoms: _46  and  _49
REMARK   11  A    between atoms: _49  and  _50
REMARK   12  A    between atoms: _60  and  _62
REMARK   13  A    between atoms: _62  and  _63
REMARK   14  A    between atoms: _62  and  _65
REMARK   15  A    between atoms: _65  and  _66
REMARK   16  A    between atoms: _69  and  _71
REMARK   17  A    between atoms: _71  and  _72
REMARK   18  A    between atoms: _71  and  _74
REMARK   19  A    between atoms: _74  and  _75
REMARK   20  A    between atoms: _80  and  _81
REMARK   21  A    between atoms: _83  and  _85
REMARK   22  A    between atoms: _85  and  _86
REMARK   23  A    between atoms: _85  and  _88
REMARK   24  A    between atoms: _88  and  _89
REMARK   25  A    between atoms: _89  and  _90
REMARK   26  A    between atoms: _93  and  _95
REMARK   27  A    between atoms: _95  and  _96
REMARK   28  A    between atoms: _95  and  _98
REMARK   29  A    between atoms: _98  and  _99
REMARK   30  A    between atoms: _99  and  _100
REMARK   31  A    between atoms: _102  and  _104
REMARK   32  A    between atoms: _104  and  _105
REMARK   33  A    between atoms: _104  and  _107
REMARK   34  A    between atoms: _107  and  _108
REMARK   35  A    between atoms: _111  and  _113
REMARK   36  A    between atoms: _113  and  _114
REMARK   37  A    between atoms: _113  and  _116
REMARK   38  A    between atoms: _116  and  _117
REMARK   39  A    between atoms: _117  and  _119
REMARK   40  A    between atoms: _119  and  ZN_352
REMARK   41  A    between atoms: _121  and  _122
REMARK   42  A    between atoms: _127  and  _129
REMARK   43  A    between atoms: _129  and  _130
REMARK   44  A    between atoms: _129  and  _132
REMARK   45  A    between atoms: _132  and  _133
REMARK   46  A    between atoms: _139  and  _141
REMARK   47  A    between atoms: _141  and  _142
REMARK   48  A    between atoms: _141  and  _144
REMARK   49  A    between atoms: _144  and  _145
REMARK   50  A    between atoms: _145  and  _146
REMARK   51  A    between atoms: _146  and  _147
REMARK   52  A    between atoms: _156  and  _158
REMARK   53  A    between atoms: _158  and  _159
REMARK   54  A    between atoms: _158  and  _161
REMARK   55  A    between atoms: _161  and  _162
REMARK   56  A    between atoms: _164  and  _166
REMARK   57  A    between atoms: _166  and  _167
REMARK   58  A    between atoms: _166  and  _169
REMARK   59  A    between atoms: _169  and  _170
REMARK   60  A    between atoms: _175  and  _176
REMARK   61  A    between atoms: _178  and  _180
REMARK   62  A    between atoms: _180  and  _181
REMARK   63  A    between atoms: _180  and  _183
REMARK   64  A    between atoms: _183  and  _184
REMARK   65  A    between atoms: _187  and  _189
REMARK   66  A    between atoms: _189  and  _190
REMARK   67  A    between atoms: _189  and  _192
REMARK   68  A    between atoms: _192  and  _193
REMARK   69  A    between atoms: _196  and  _198
REMARK   70  A    between atoms: _198  and  _199
REMARK   71  A    between atoms: _198  and  _201
REMARK   72  A    between atoms: _201  and  _202
REMARK   73  A    between atoms: _208  and  _210
REMARK   74  A    between atoms: _210  and  _211
REMARK   75  A    between atoms: _210  and  _213
REMARK   76  A    between atoms: _213  and  _214
REMARK   77  A    between atoms: _219  and  _220
REMARK   78  A    between atoms: _222  and  _224
REMARK   79  A    between atoms: _224  and  _225
REMARK   80  A    between atoms: _224  and  _227
REMARK   81  A    between atoms: _227  and  _228
REMARK   82  A    between atoms: _231  and  _233
REMARK   83  A    between atoms: _233  and  _234
REMARK   84  A    between atoms: _233  and  _236
REMARK   85  A    between atoms: _236  and  _237
REMARK   86  A    between atoms: _247  and  _249
REMARK   87  A    between atoms: _249  and  _250
REMARK   88  A    between atoms: _249  and  _252
REMARK   89  A    between atoms: _252  and  _253
REMARK   90  A    between atoms: _258  and  _260
REMARK   91  A    between atoms: _260  and  _261
REMARK   92  A    between atoms: _260  and  _263
REMARK   93  A    between atoms: _263  and  _264
REMARK   94  A    between atoms: _268  and  ZN_352
REMARK   95  A    between atoms: _269  and  _271
REMARK   96  A    between atoms: _271  and  _272
REMARK   97  A    between atoms: _271  and  _274
REMARK   98  A    between atoms: _274  and  _275
REMARK   99  A    between atoms: _278  and  _280
REMARK  100  A    between atoms: _280  and  _281
REMARK  101  A    between atoms: _283  and  _285
REMARK  102  A    between atoms: _285  and  _286
REMARK  103  A    between atoms: _285  and  _288
REMARK  104  A    between atoms: _288  and  _289
REMARK  105  A    between atoms: _292  and  _294
REMARK  106  A    between atoms: _294  and  _295
REMARK  107  A    between atoms: _294  and  _297
REMARK  108  A    between atoms: _297  and  _298
REMARK  109  A    between atoms: _301  and  _303
REMARK  110  A    between atoms: _303  and  _304
REMARK  111  A    between atoms: _307  and  _309
REMARK  112  A    between atoms: _309  and  _310
REMARK  113  A    between atoms: _309  and  _312
REMARK  114  A    between atoms: _312  and  _313
REMARK  115  A    between atoms: _318  and  _319
REMARK  116  A    between atoms: _321  and  _323
REMARK  117  A    between atoms: _323  and  _324
REMARK  118  A    between atoms: _323  and  _326
REMARK  119  A    between atoms: _326  and  _327
REMARK  120  A    between atoms: _327  and  _328
REMARK  121  A    between atoms: _328  and  _329
REMARK  122  A    between atoms: _338  and  _340
REMARK  123  A    between atoms: _340  and  _341
REMARK  124  A    between atoms: _343  and  _345
REMARK  125  A    between atoms: _345  and  _346
REMARK  126  A    between atoms: _345  and  _348
REMARK  127  A    between atoms: _348  and  _349
REMARK                            x       y       z     vdW  Elec       q    Type
REMARK                         _______ _______ _______ _____ _____    ______ ____
ROOT
ATOM      1  O   HOH     1      24.285  63.606   7.389  0.00  0.00    +0.000 OA
ENDROOT
TORSDOF 0
REMARK  Name = ../refined-set-2016/3dx3/3dx3_pocket.pdb
REMARK  127 active torsions:
REMARK  status: ('A' for Active; 'I' for Inactive)
REMARK    1  A    between atoms: _1  and  _3
REMARK    2  A    between atoms: _14  and  _17
REMARK    3  A    between atoms: _17  and  _18
REMARK    4  A    between atoms: _25  and  _26
REMARK    5  A    between atoms: _33  and  _34
REMARK    6  A    between atoms: _39  and  _41
REMARK    7  A    between atoms: _41  and  _42
REMARK    8  A    between atoms: _44  and  _46
REMARK    9  A    between atoms: _46  and  _47
REMARK   10  A    between atoms: _46  and  _49
REMARK   11  A    between atoms: _49  and  _50
REMARK   12  A    between atoms: _60  and  _62
REMARK   13  A    between atoms: _62  and  _63
REMARK   14  A    between atoms: _62  and  _65
REMARK   15  A    between atoms: _65  and  _66
REMARK   16  A    between atoms: _69  and  _71
REMARK   17  A    between atoms: _71  and  _72
REMARK   18  A    between atoms: _71  and  _74
REMARK   19  A    between atoms: _74  and  _75
REMARK   20  A    between atoms: _80  and  _81
REMARK   21  A    between atoms: _83  and  _85
REMARK   22  A    between atoms: _85  and  _86
REMARK   23  A    between atoms: _85  and  _88
REMARK   24  A    between atoms: _88  and  _89
REMARK   25  A    between atoms: _89  and  _90
REMARK   26  A    between atoms: _93  and  _95
REMARK   27  A    between atoms: _95  and  _96
REMARK   28  A    between atoms: _95  and  _98
REMARK   29  A    between atoms: _98  and  _99
REMARK   30  A    between atoms: _99  and  _100
REMARK   31  A    between atoms: _102  and  _104
REMARK   32  A    between atoms: _104  and  _105
REMARK   33  A    between atoms: _104  and  _107
REMARK   34  A    between atoms: _107  and  _108
REMARK   35  A    between atoms: _111  and  _113
REMARK   36  A    between atoms: _113  and  _114
REMARK   37  A    between atoms: _113  and  _116
REMARK   38  A    between atoms: _116  and  _117
REMARK   39  A    between atoms: _117  and  _119
REMARK   40  A    between atoms: _119  and  ZN_352
REMARK   41  A    between atoms: _121  and  _122
REMARK   42  A    between atoms: _127  and  _129
REMARK   43  A    between atoms: _129  and  _130
REMARK   44  A    between atoms: _129  and  _132
REMARK   45  A    between atoms: _132  and  _133
REMARK   46  A    between atoms: _139  and  _141
REMARK   47  A    between atoms: _141  and  _142
REMARK   48  A    between atoms: _141  and  _144
REMARK   49  A    between atoms: _144  and  _145
REMARK   50  A    between atoms: _145  and  _146
REMARK   51  A    between atoms: _146  and  _147
REMARK   52  A    between atoms: _156  and  _158
REMARK   53  A    between atoms: _158  and  _159
REMARK   54  A    between atoms: _158  and  _161
REMARK   55  A    between atoms: _161  and  _162
REMARK   56  A    between atoms: _164  and  _166
REMARK   57  A    between atoms: _166  and  _167
REMARK   58  A    between atoms: _166  and  _169
REMARK   59  A    between atoms: _169  and  _170
REMARK   60  A    between atoms: _175  and  _176
REMARK   61  A    between atoms: _178  and  _180
REMARK   62  A    between atoms: _180  and  _181
REMARK   63  A    between atoms: _180  and  _183
REMARK   64  A    between atoms: _183  and  _184
REMARK   65  A    between atoms: _187  and  _189
REMARK   66  A    between atoms: _189  and  _190
REMARK   67  A    between atoms: _189  and  _192
REMARK   68  A    between atoms: _192  and  _193
REMARK   69  A    between atoms: _196  and  _198
REMARK   70  A    between atoms: _198  and  _199
REMARK   71  A    between atoms: _198  and  _201
REMARK   72  A    between atoms: _201  and  _202
REMARK   73  A    between atoms: _208  and  _210
REMARK   74  A    between atoms: _210  and  _211
REMARK   75  A    between atoms: _210  and  _213
REMARK   76  A    between atoms: _213  and  _214
REMARK   77  A    between atoms: _219  and  _220
REMARK   78  A    between atoms: _222  and  _224
REMARK   79  A    between atoms: _224  and  _225
REMARK   80  A    between atoms: _224  and  _227
REMARK   81  A    between atoms: _227  and  _228
REMARK   82  A    between atoms: _231  and  _233
REMARK   83  A    between atoms: _233  and  _234
REMARK   84  A    between atoms: _233  and  _236
REMARK   85  A    between atoms: _236  and  _237
REMARK   86  A    between atoms: _247  and  _249
REMARK   87  A    between atoms: _249  and  _250
REMARK   88  A    between atoms: _249  and  _252
REMARK   89  A    between atoms: _252  and  _253
REMARK   90  A    between atoms: _258  and  _260
REMARK   91  A    between atoms: _260  and  _261
REMARK   92  A    between atoms: _260  and  _263
REMARK   93  A    between atoms: _263  and  _264
REMARK   94  A    between atoms: _268  and  ZN_352
REMARK   95  A    between atoms: _269  and  _271
REMARK   96  A    between atoms: _271  and  _272
REMARK   97  A    between atoms: _271  and  _274
REMARK   98  A    between atoms: _274  and  _275
REMARK   99  A    between atoms: _278  and  _280
REMARK  100  A    between atoms: _280  and  _281
REMARK  101  A    between atoms: _283  and  _285
REMARK  102  A    between atoms: _285  and  _286
REMARK  103  A    between atoms: _285  and  _288
REMARK  104  A    between atoms: _288  and  _289
REMARK  105  A    between atoms: _292  and  _294
REMARK  106  A    between atoms: _294  and  _295
REMARK  107  A    between atoms: _294  and  _297
REMARK  108  A    between atoms: _297  and  _298
REMARK  109  A    between atoms: _301  and  _303
REMARK  110  A    between atoms: _303  and  _304
REMARK  111  A    between atoms: _307  and  _309
REMARK  112  A    between atoms: _309  and  _310
REMARK  113  A    between atoms: _309  and  _312
REMARK  114  A    between atoms: _312  and  _313
REMARK  115  A    between atoms: _318  and  _319
REMARK  116  A    between atoms: _321  and  _323
REMARK  117  A    between atoms: _323  and  _324
REMARK  118  A    between atoms: _323  and  _326
REMARK  119  A    between atoms: _326  and  _327
REMARK  120  A    between atoms: _327  and  _328
REMARK  121  A    between atoms: _328  and  _329
REMARK  122  A    between atoms: _338  and  _340
REMARK  123  A    between atoms: _340  and  _341
REMARK  124  A    between atoms: _343  and  _345
REMARK  125  A    between atoms: _345  and  _346
REMARK  126  A    between atoms: _345  and  _348
REMARK  127  A    between atoms: _348  and  _349
REMARK                            x       y       z     vdW  Elec       q    Type
REMARK                         _______ _______ _______ _____ _____    ______ ____
ROOT
ATOM      1  O   HOH     1      25.155  65.898   8.647  0.00  0.00    +0.000 OA
ENDROOT
TORSDOF 0
REMARK  Name = ../refined-set-2016/3dx3/3dx3_pocket.pdb
REMARK  127 active torsions:
REMARK  status: ('A' for Active; 'I' for Inactive)
REMARK    1  A    between atoms: _1  and  _3
REMARK    2  A    between atoms: _14  and  _17
REMARK    3  A    between atoms: _17  and  _18
REMARK    4  A    between atoms: _25  and  _26
REMARK    5  A    between atoms: _33  and  _34
REMARK    6  A    between atoms: _39  and  _41
REMARK    7  A    between atoms: _41  and  _42
REMARK    8  A    between atoms: _44  and  _46
REMARK    9  A    between atoms: _46  and  _47
REMARK   10  A    between atoms: _46  and  _49
REMARK   11  A    between atoms: _49  and  _50
REMARK   12  A    between atoms: _60  and  _62
REMARK   13  A    between atoms: _62  and  _63
REMARK   14  A    between atoms: _62  and  _65
REMARK   15  A    between atoms: _65  and  _66
REMARK   16  A    between atoms: _69  and  _71
REMARK   17  A    between atoms: _71  and  _72
REMARK   18  A    between atoms: _71  and  _74
REMARK   19  A    between atoms: _74  and  _75
REMARK   20  A    between atoms: _80  and  _81
REMARK   21  A    between atoms: _83  and  _85
REMARK   22  A    between atoms: _85  and  _86
REMARK   23  A    between atoms: _85  and  _88
REMARK   24  A    between atoms: _88  and  _89
REMARK   25  A    between atoms: _89  and  _90
REMARK   26  A    between atoms: _93  and  _95
REMARK   27  A    between atoms: _95  and  _96
REMARK   28  A    between atoms: _95  and  _98
REMARK   29  A    between atoms: _98  and  _99
REMARK   30  A    between atoms: _99  and  _100
REMARK   31  A    between atoms: _102  and  _104
REMARK   32  A    between atoms: _104  and  _105
REMARK   33  A    between atoms: _104  and  _107
REMARK   34  A    between atoms: _107  and  _108
REMARK   35  A    between atoms: _111  and  _113
REMARK   36  A    between atoms: _113  and  _114
REMARK   37  A    between atoms: _113  and  _116
REMARK   38  A    between atoms: _116  and  _117
REMARK   39  A    between atoms: _117  and  _119
REMARK   40  A    between atoms: _119  and  ZN_352
REMARK   41  A    between atoms: _121  and  _122
REMARK   42  A    between atoms: _127  and  _129
REMARK   43  A    between atoms: _129  and  _130
REMARK   44  A    between atoms: _129  and  _132
REMARK   45  A    between atoms: _132  and  _133
REMARK   46  A    between atoms: _139  and  _141
REMARK   47  A    between atoms: _141  and  _142
REMARK   48  A    between atoms: _141  and  _144
REMARK   49  A    between atoms: _144  and  _145
REMARK   50  A    between atoms: _145  and  _146
REMARK   51  A    between atoms: _146  and  _147
REMARK   52  A    between atoms: _156  and  _158
REMARK   53  A    between atoms: _158  and  _159
REMARK   54  A    between atoms: _158  and  _161
REMARK   55  A    between atoms: _161  and  _162
REMARK   56  A    between atoms: _164  and  _166
REMARK   57  A    between atoms: _166  and  _167
REMARK   58  A    between atoms: _166  and  _169
REMARK   59  A    between atoms: _169  and  _170
REMARK   60  A    between atoms: _175  and  _176
REMARK   61  A    between atoms: _178  and  _180
REMARK   62  A    between atoms: _180  and  _181
REMARK   63  A    between atoms: _180  and  _183
REMARK   64  A    between atoms: _183  and  _184
REMARK   65  A    between atoms: _187  and  _189
REMARK   66  A    between atoms: _189  and  _190
REMARK   67  A    between atoms: _189  and  _192
REMARK   68  A    between atoms: _192  and  _193
REMARK   69  A    between atoms: _196  and  _198
REMARK   70  A    between atoms: _198  and  _199
REMARK   71  A    between atoms: _198  and  _201
REMARK   72  A    between atoms: _201  and  _202
REMARK   73  A    between atoms: _208  and  _210
REMARK   74  A    between atoms: _210  and  _211
REMARK   75  A    between atoms: _210  and  _213
REMARK   76  A    between atoms: _213  and  _214
REMARK   77  A    between atoms: _219  and  _220
REMARK   78  A    between atoms: _222  and  _224
REMARK   79  A    between atoms: _224  and  _225
REMARK   80  A    between atoms: _224  and  _227
REMARK   81  A    between atoms: _227  and  _228
REMARK   82  A    between atoms: _231  and  _233
REMARK   83  A    between atoms: _233  and  _234
REMARK   84  A    between atoms: _233  and  _236
REMARK   85  A    between atoms: _236  and  _237
REMARK   86  A    between atoms: _247  and  _249
REMARK   87  A    between atoms: _249  and  _250
REMARK   88  A    between atoms: _249  and  _252
REMARK   89  A    between atoms: _252  and  _253
REMARK   90  A    between atoms: _258  and  _260
REMARK   91  A    between atoms: _260  and  _261
REMARK   92  A    between atoms: _260  and  _263
REMARK   93  A    between atoms: _263  and  _264
REMARK   94  A    between atoms: _268  and  ZN_352
REMARK   95  A    between atoms: _269  and  _271
REMARK   96  A    between atoms: _271  and  _272
REMARK   97  A    between atoms: _271  and  _274
REMARK   98  A    between atoms: _274  and  _275
REMARK   99  A    between atoms: _278  and  _280
REMARK  100  A    between atoms: _280  and  _281
REMARK  101  A    between atoms: _283  and  _285
REMARK  102  A    between atoms: _285  and  _286
REMARK  103  A    between atoms: _285  and  _288
REMARK  104  A    between atoms: _288  and  _289
REMARK  105  A    between atoms: _292  and  _294
REMARK  106  A    between atoms: _294  and  _295
REMARK  107  A    between atoms: _294  and  _297
REMARK  108  A    between atoms: _297  and  _298
REMARK  109  A    between atoms: _301  and  _303
REMARK  110  A    between atoms: _303  and  _304
REMARK  111  A    between atoms: _307  and  _309
REMARK  112  A    between atoms: _309  and  _310
REMARK  113  A    between atoms: _309  and  _312
REMARK  114  A    between atoms: _312  and  _313
REMARK  115  A    between atoms: _318  and  _319
REMARK  116  A    between atoms: _321  and  _323
REMARK  117  A    between atoms: _323  and  _324
REMARK  118  A    between atoms: _323  and  _326
REMARK  119  A    between atoms: _326  and  _327
REMARK  120  A    between atoms: _327  and  _328
REMARK  121  A    between atoms: _328  and  _329
REMARK  122  A    between atoms: _338  and  _340
REMARK  123  A    between atoms: _340  and  _341
REMARK  124  A    between atoms: _343  and  _345
REMARK  125  A    between atoms: _345  and  _346
REMARK  126  A    between atoms: _345  and  _348
REMARK  127  A    between atoms: _348  and  _349
REMARK                            x       y       z     vdW  Elec       q    Type
REMARK                         _______ _______ _______ _____ _____    ______ ____
ROOT
ATOM      1  O   HOH     1      27.592  67.205   8.554  0.00  0.00    +0.000 OA
ENDROOT
TORSDOF 0
REMARK  Name = ../refined-set-2016/3dx3/3dx3_pocket.pdb
REMARK  127 active torsions:
REMARK  status: ('A' for Active; 'I' for Inactive)
REMARK    1  A    between atoms: _1  and  _3
REMARK    2  A    between atoms: _14  and  _17
REMARK    3  A    between atoms: _17  and  _18
REMARK    4  A    between atoms: _25  and  _26
REMARK    5  A    between atoms: _33  and  _34
REMARK    6  A    between atoms: _39  and  _41
REMARK    7  A    between atoms: _41  and  _42
REMARK    8  A    between atoms: _44  and  _46
REMARK    9  A    between atoms: _46  and  _47
REMARK   10  A    between atoms: _46  and  _49
REMARK   11  A    between atoms: _49  and  _50
REMARK   12  A    between atoms: _60  and  _62
REMARK   13  A    between atoms: _62  and  _63
REMARK   14  A    between atoms: _62  and  _65
REMARK   15  A    between atoms: _65  and  _66
REMARK   16  A    between atoms: _69  and  _71
REMARK   17  A    between atoms: _71  and  _72
REMARK   18  A    between atoms: _71  and  _74
REMARK   19  A    between atoms: _74  and  _75
REMARK   20  A    between atoms: _80  and  _81
REMARK   21  A    between atoms: _83  and  _85
REMARK   22  A    between atoms: _85  and  _86
REMARK   23  A    between atoms: _85  and  _88
REMARK   24  A    between atoms: _88  and  _89
REMARK   25  A    between atoms: _89  and  _90
REMARK   26  A    between atoms: _93  and  _95
REMARK   27  A    between atoms: _95  and  _96
REMARK   28  A    between atoms: _95  and  _98
REMARK   29  A    between atoms: _98  and  _99
REMARK   30  A    between atoms: _99  and  _100
REMARK   31  A    between atoms: _102  and  _104
REMARK   32  A    between atoms: _104  and  _105
REMARK   33  A    between atoms: _104  and  _107
REMARK   34  A    between atoms: _107  and  _108
REMARK   35  A    between atoms: _111  and  _113
REMARK   36  A    between atoms: _113  and  _114
REMARK   37  A    between atoms: _113  and  _116
REMARK   38  A    between atoms: _116  and  _117
REMARK   39  A    between atoms: _117  and  _119
REMARK   40  A    between atoms: _119  and  ZN_352
REMARK   41  A    between atoms: _121  and  _122
REMARK   42  A    between atoms: _127  and  _129
REMARK   43  A    between atoms: _129  and  _130
REMARK   44  A    between atoms: _129  and  _132
REMARK   45  A    between atoms: _132  and  _133
REMARK   46  A    between atoms: _139  and  _141
REMARK   47  A    between atoms: _141  and  _142
REMARK   48  A    between atoms: _141  and  _144
REMARK   49  A    between atoms: _144  and  _145
REMARK   50  A    between atoms: _145  and  _146
REMARK   51  A    between atoms: _146  and  _147
REMARK   52  A    between atoms: _156  and  _158
REMARK   53  A    between atoms: _158  and  _159
REMARK   54  A    between atoms: _158  and  _161
REMARK   55  A    between atoms: _161  and  _162
REMARK   56  A    between atoms: _164  and  _166
REMARK   57  A    between atoms: _166  and  _167
REMARK   58  A    between atoms: _166  and  _169
REMARK   59  A    between atoms: _169  and  _170
REMARK   60  A    between atoms: _175  and  _176
REMARK   61  A    between atoms: _178  and  _180
REMARK   62  A    between atoms: _180  and  _181
REMARK   63  A    between atoms: _180  and  _183
REMARK   64  A    between atoms: _183  and  _184
REMARK   65  A    between atoms: _187  and  _189
REMARK   66  A    between atoms: _189  and  _190
REMARK   67  A    between atoms: _189  and  _192
REMARK   68  A    between atoms: _192  and  _193
REMARK   69  A    between atoms: _196  and  _198
REMARK   70  A    between atoms: _198  and  _199
REMARK   71  A    between atoms: _198  and  _201
REMARK   72  A    between atoms: _201  and  _202
REMARK   73  A    between atoms: _208  and  _210
REMARK   74  A    between atoms: _210  and  _211
REMARK   75  A    between atoms: _210  and  _213
REMARK   76  A    between atoms: _213  and  _214
REMARK   77  A    between atoms: _219  and  _220
REMARK   78  A    between atoms: _222  and  _224
REMARK   79  A    between atoms: _224  and  _225
REMARK   80  A    between atoms: _224  and  _227
REMARK   81  A    between atoms: _227  and  _228
REMARK   82  A    between atoms: _231  and  _233
REMARK   83  A    between atoms: _233  and  _234
REMARK   84  A    between atoms: _233  and  _236
REMARK   85  A    between atoms: _236  and  _237
REMARK   86  A    between atoms: _247  and  _249
REMARK   87  A    between atoms: _249  and  _250
REMARK   88  A    between atoms: _249  and  _252
REMARK   89  A    between atoms: _252  and  _253
REMARK   90  A    between atoms: _258  and  _260
REMARK   91  A    between atoms: _260  and  _261
REMARK   92  A    between atoms: _260  and  _263
REMARK   93  A    between atoms: _263  and  _264
REMARK   94  A    between atoms: _268  and  ZN_352
REMARK   95  A    between atoms: _269  and  _271
REMARK   96  A    between atoms: _271  and  _272
REMARK   97  A    between atoms: _271  and  _274
REMARK   98  A    between atoms: _274  and  _275
REMARK   99  A    between atoms: _278  and  _280
REMARK  100  A    between atoms: _280  and  _281
REMARK  101  A    between atoms: _283  and  _285
REMARK  102  A    between atoms: _285  and  _286
REMARK  103  A    between atoms: _285  and  _288
REMARK  104  A    between atoms: _288  and  _289
REMARK  105  A    between atoms: _292  and  _294
REMARK  106  A    between atoms: _294  and  _295
REMARK  107  A    between atoms: _294  and  _297
REMARK  108  A    between atoms: _297  and  _298
REMARK  109  A    between atoms: _301  and  _303
REMARK  110  A    between atoms: _303  and  _304
REMARK  111  A    between atoms: _307  and  _309
REMARK  112  A    between atoms: _309  and  _310
REMARK  113  A    between atoms: _309  and  _312
REMARK  114  A    between atoms: _312  and  _313
REMARK  115  A    between atoms: _318  and  _319
REMARK  116  A    between atoms: _321  and  _323
REMARK  117  A    between atoms: _323  and  _324
REMARK  118  A    between atoms: _323  and  _326
REMARK  119  A    between atoms: _326  and  _327
REMARK  120  A    between atoms: _327  and  _328
REMARK  121  A    between atoms: _328  and  _329
REMARK  122  A    between atoms: _338  and  _340
REMARK  123  A    between atoms: _340  and  _341
REMARK  124  A    between atoms: _343  and  _345
REMARK  125  A    between atoms: _345  and  _346
REMARK  126  A    between atoms: _345  and  _348
REMARK  127  A    between atoms: _348  and  _349
REMARK                            x       y       z     vdW  Elec       q    Type
REMARK                         _______ _______ _______ _____ _____    ______ ____
ROOT
ATOM      1  O   HOH     1      23.627  67.090  10.705  0.00  0.00    +0.000 OA
ENDROOT
TORSDOF 0
REMARK  Name = ../refined-set-2016/3dx3/3dx3_pocket.pdb
REMARK  127 active torsions:
REMARK  status: ('A' for Active; 'I' for Inactive)
REMARK    1  A    between atoms: _1  and  _3
REMARK    2  A    between atoms: _14  and  _17
REMARK    3  A    between atoms: _17  and  _18
REMARK    4  A    between atoms: _25  and  _26
REMARK    5  A    between atoms: _33  and  _34
REMARK    6  A    between atoms: _39  and  _41
REMARK    7  A    between atoms: _41  and  _42
REMARK    8  A    between atoms: _44  and  _46
REMARK    9  A    between atoms: _46  and  _47
REMARK   10  A    between atoms: _46  and  _49
REMARK   11  A    between atoms: _49  and  _50
REMARK   12  A    between atoms: _60  and  _62
REMARK   13  A    between atoms: _62  and  _63
REMARK   14  A    between atoms: _62  and  _65
REMARK   15  A    between atoms: _65  and  _66
REMARK   16  A    between atoms: _69  and  _71
REMARK   17  A    between atoms: _71  and  _72
REMARK   18  A    between atoms: _71  and  _74
REMARK   19  A    between atoms: _74  and  _75
REMARK   20  A    between atoms: _80  and  _81
REMARK   21  A    between atoms: _83  and  _85
REMARK   22  A    between atoms: _85  and  _86
REMARK   23  A    between atoms: _85  and  _88
REMARK   24  A    between atoms: _88  and  _89
REMARK   25  A    between atoms: _89  and  _90
REMARK   26  A    between atoms: _93  and  _95
REMARK   27  A    between atoms: _95  and  _96
REMARK   28  A    between atoms: _95  and  _98
REMARK   29  A    between atoms: _98  and  _99
REMARK   30  A    between atoms: _99  and  _100
REMARK   31  A    between atoms: _102  and  _104
REMARK   32  A    between atoms: _104  and  _105
REMARK   33  A    between atoms: _104  and  _107
REMARK   34  A    between atoms: _107  and  _108
REMARK   35  A    between atoms: _111  and  _113
REMARK   36  A    between atoms: _113  and  _114
REMARK   37  A    between atoms: _113  and  _116
REMARK   38  A    between atoms: _116  and  _117
REMARK   39  A    between atoms: _117  and  _119
REMARK   40  A    between atoms: _119  and  ZN_352
REMARK   41  A    between atoms: _121  and  _122
REMARK   42  A    between atoms: _127  and  _129
REMARK   43  A    between atoms: _129  and  _130
REMARK   44  A    between atoms: _129  and  _132
REMARK   45  A    between atoms: _132  and  _133
REMARK   46  A    between atoms: _139  and  _141
REMARK   47  A    between atoms: _141  and  _142
REMARK   48  A    between atoms: _141  and  _144
REMARK   49  A    between atoms: _144  and  _145
REMARK   50  A    between atoms: _145  and  _146
REMARK   51  A    between atoms: _146  and  _147
REMARK   52  A    between atoms: _156  and  _158
REMARK   53  A    between atoms: _158  and  _159
REMARK   54  A    between atoms: _158  and  _161
REMARK   55  A    between atoms: _161  and  _162
REMARK   56  A    between atoms: _164  and  _166
REMARK   57  A    between atoms: _166  and  _167
REMARK   58  A    between atoms: _166  and  _169
REMARK   59  A    between atoms: _169  and  _170
REMARK   60  A    between atoms: _175  and  _176
REMARK   61  A    between atoms: _178  and  _180
REMARK   62  A    between atoms: _180  and  _181
REMARK   63  A    between atoms: _180  and  _183
REMARK   64  A    between atoms: _183  and  _184
REMARK   65  A    between atoms: _187  and  _189
REMARK   66  A    between atoms: _189  and  _190
REMARK   67  A    between atoms: _189  and  _192
REMARK   68  A    between atoms: _192  and  _193
REMARK   69  A    between atoms: _196  and  _198
REMARK   70  A    between atoms: _198  and  _199
REMARK   71  A    between atoms: _198  and  _201
REMARK   72  A    between atoms: _201  and  _202
REMARK   73  A    between atoms: _208  and  _210
REMARK   74  A    between atoms: _210  and  _211
REMARK   75  A    between atoms: _210  and  _213
REMARK   76  A    between atoms: _213  and  _214
REMARK   77  A    between atoms: _219  and  _220
REMARK   78  A    between atoms: _222  and  _224
REMARK   79  A    between atoms: _224  and  _225
REMARK   80  A    between atoms: _224  and  _227
REMARK   81  A    between atoms: _227  and  _228
REMARK   82  A    between atoms: _231  and  _233
REMARK   83  A    between atoms: _233  and  _234
REMARK   84  A    between atoms: _233  and  _236
REMARK   85  A    between atoms: _236  and  _237
REMARK   86  A    between atoms: _247  and  _249
REMARK   87  A    between atoms: _249  and  _250
REMARK   88  A    between atoms: _249  and  _252
REMARK   89  A    between atoms: _252  and  _253
REMARK   90  A    between atoms: _258  and  _260
REMARK   91  A    between atoms: _260  and  _261
REMARK   92  A    between atoms: _260  and  _263
REMARK   93  A    between atoms: _263  and  _264
REMARK   94  A    between atoms: _268  and  ZN_352
REMARK   95  A    between atoms: _269  and  _271
REMARK   96  A    between atoms: _271  and  _272
REMARK   97  A    between atoms: _271  and  _274
REMARK   98  A    between atoms: _274  and  _275
REMARK   99  A    between atoms: _278  and  _280
REMARK  100  A    between atoms: _280  and  _281
REMARK  101  A    between atoms: _283  and  _285
REMARK  102  A    between atoms: _285  and  _286
REMARK  103  A    between atoms: _285  and  _288
REMARK  104  A    between atoms: _288  and  _289
REMARK  105  A    between atoms: _292  and  _294
REMARK  106  A    between atoms: _294  and  _295
REMARK  107  A    between atoms: _294  and  _297
REMARK  108  A    between atoms: _297  and  _298
REMARK  109  A    between atoms: _301  and  _303
REMARK  110  A    between atoms: _303  and  _304
REMARK  111  A    between atoms: _307  and  _309
REMARK  112  A    between atoms: _309  and  _310
REMARK  113  A    between atoms: _309  and  _312
REMARK  114  A    between atoms: _312  and  _313
REMARK  115  A    between atoms: _318  and  _319
REMARK  116  A    between atoms: _321  and  _323
REMARK  117  A    between atoms: _323  and  _324
REMARK  118  A    between atoms: _323  and  _326
REMARK  119  A    between atoms: _326  and  _327
REMARK  120  A    between atoms: _327  and  _328
REMARK  121  A    between atoms: _328  and  _329
REMARK  122  A    between atoms: _338  and  _340
REMARK  123  A    between atoms: _340  and  _341
REMARK  124  A    between atoms: _343  and  _345
REMARK  125  A    between atoms: _345  and  _346
REMARK  126  A    between atoms: _345  and  _348
REMARK  127  A    between atoms: _348  and  _349
REMARK                            x       y       z     vdW  Elec       q    Type
REMARK                         _______ _______ _______ _____ _____    ______ ____
ROOT
ATOM      1  O   HOH     1      24.524  63.386  11.405  0.00  0.00    +0.000 OA
ENDROOT
TORSDOF 0
REMARK  Name = ../refined-set-2016/3dx3/3dx3_pocket.pdb
REMARK  127 active torsions:
REMARK  status: ('A' for Active; 'I' for Inactive)
REMARK    1  A    between atoms: _1  and  _3
REMARK    2  A    between atoms: _14  and  _17
REMARK    3  A    between atoms: _17  and  _18
REMARK    4  A    between atoms: _25  and  _26
REMARK    5  A    between atoms: _33  and  _34
REMARK    6  A    between atoms: _39  and  _41
REMARK    7  A    between atoms: _41  and  _42
REMARK    8  A    between atoms: _44  and  _46
REMARK    9  A    between atoms: _46  and  _47
REMARK   10  A    between atoms: _46  and  _49
REMARK   11  A    between atoms: _49  and  _50
REMARK   12  A    between atoms: _60  and  _62
REMARK   13  A    between atoms: _62  and  _63
REMARK   14  A    between atoms: _62  and  _65
REMARK   15  A    between atoms: _65  and  _66
REMARK   16  A    between atoms: _69  and  _71
REMARK   17  A    between atoms: _71  and  _72
REMARK   18  A    between atoms: _71  and  _74
REMARK   19  A    between atoms: _74  and  _75
REMARK   20  A    between atoms: _80  and  _81
REMARK   21  A    between atoms: _83  and  _85
REMARK   22  A    between atoms: _85  and  _86
REMARK   23  A    between atoms: _85  and  _88
REMARK   24  A    between atoms: _88  and  _89
REMARK   25  A    between atoms: _89  and  _90
REMARK   26  A    between atoms: _93  and  _95
REMARK   27  A    between atoms: _95  and  _96
REMARK   28  A    between atoms: _95  and  _98
REMARK   29  A    between atoms: _98  and  _99
REMARK   30  A    between atoms: _99  and  _100
REMARK   31  A    between atoms: _102  and  _104
REMARK   32  A    between atoms: _104  and  _105
REMARK   33  A    between atoms: _104  and  _107
REMARK   34  A    between atoms: _107  and  _108
REMARK   35  A    between atoms: _111  and  _113
REMARK   36  A    between atoms: _113  and  _114
REMARK   37  A    between atoms: _113  and  _116
REMARK   38  A    between atoms: _116  and  _117
REMARK   39  A    between atoms: _117  and  _119
REMARK   40  A    between atoms: _119  and  ZN_352
REMARK   41  A    between atoms: _121  and  _122
REMARK   42  A    between atoms: _127  and  _129
REMARK   43  A    between atoms: _129  and  _130
REMARK   44  A    between atoms: _129  and  _132
REMARK   45  A    between atoms: _132  and  _133
REMARK   46  A    between atoms: _139  and  _141
REMARK   47  A    between atoms: _141  and  _142
REMARK   48  A    between atoms: _141  and  _144
REMARK   49  A    between atoms: _144  and  _145
REMARK   50  A    between atoms: _145  and  _146
REMARK   51  A    between atoms: _146  and  _147
REMARK   52  A    between atoms: _156  and  _158
REMARK   53  A    between atoms: _158  and  _159
REMARK   54  A    between atoms: _158  and  _161
REMARK   55  A    between atoms: _161  and  _162
REMARK   56  A    between atoms: _164  and  _166
REMARK   57  A    between atoms: _166  and  _167
REMARK   58  A    between atoms: _166  and  _169
REMARK   59  A    between atoms: _169  and  _170
REMARK   60  A    between atoms: _175  and  _176
REMARK   61  A    between atoms: _178  and  _180
REMARK   62  A    between atoms: _180  and  _181
REMARK   63  A    between atoms: _180  and  _183
REMARK   64  A    between atoms: _183  and  _184
REMARK   65  A    between atoms: _187  and  _189
REMARK   66  A    between atoms: _189  and  _190
REMARK   67  A    between atoms: _189  and  _192
REMARK   68  A    between atoms: _192  and  _193
REMARK   69  A    between atoms: _196  and  _198
REMARK   70  A    between atoms: _198  and  _199
REMARK   71  A    between atoms: _198  and  _201
REMARK   72  A    between atoms: _201  and  _202
REMARK   73  A    between atoms: _208  and  _210
REMARK   74  A    between atoms: _210  and  _211
REMARK   75  A    between atoms: _210  and  _213
REMARK   76  A    between atoms: _213  and  _214
REMARK   77  A    between atoms: _219  and  _220
REMARK   78  A    between atoms: _222  and  _224
REMARK   79  A    between atoms: _224  and  _225
REMARK   80  A    between atoms: _224  and  _227
REMARK   81  A    between atoms: _227  and  _228
REMARK   82  A    between atoms: _231  and  _233
REMARK   83  A    between atoms: _233  and  _234
REMARK   84  A    between atoms: _233  and  _236
REMARK   85  A    between atoms: _236  and  _237
REMARK   86  A    between atoms: _247  and  _249
REMARK   87  A    between atoms: _249  and  _250
REMARK   88  A    between atoms: _249  and  _252
REMARK   89  A    between atoms: _252  and  _253
REMARK   90  A    between atoms: _258  and  _260
REMARK   91  A    between atoms: _260  and  _261
REMARK   92  A    between atoms: _260  and  _263
REMARK   93  A    between atoms: _263  and  _264
REMARK   94  A    between atoms: _268  and  ZN_352
REMARK   95  A    between atoms: _269  and  _271
REMARK   96  A    between atoms: _271  and  _272
REMARK   97  A    between atoms: _271  and  _274
REMARK   98  A    between atoms: _274  and  _275
REMARK   99  A    between atoms: _278  and  _280
REMARK  100  A    between atoms: _280  and  _281
REMARK  101  A    between atoms: _283  and  _285
REMARK  102  A    between atoms: _285  and  _286
REMARK  103  A    between atoms: _285  and  _288
REMARK  104  A    between atoms: _288  and  _289
REMARK  105  A    between atoms: _292  and  _294
REMARK  106  A    between atoms: _294  and  _295
REMARK  107  A    between atoms: _294  and  _297
REMARK  108  A    between atoms: _297  and  _298
REMARK  109  A    between atoms: _301  and  _303
REMARK  110  A    between atoms: _303  and  _304
REMARK  111  A    between atoms: _307  and  _309
REMARK  112  A    between atoms: _309  and  _310
REMARK  113  A    between atoms: _309  and  _312
REMARK  114  A    between atoms: _312  and  _313
REMARK  115  A    between atoms: _318  and  _319
REMARK  116  A    between atoms: _321  and  _323
REMARK  117  A    between atoms: _323  and  _324
REMARK  118  A    between atoms: _323  and  _326
REMARK  119  A    between atoms: _326  and  _327
REMARK  120  A    between atoms: _327  and  _328
REMARK  121  A    between atoms: _328  and  _329
REMARK  122  A    between atoms: _338  and  _340
REMARK  123  A    between atoms: _340  and  _341
REMARK  124  A    between atoms: _343  and  _345
REMARK  125  A    between atoms: _345  and  _346
REMARK  126  A    between atoms: _345  and  _348
REMARK  127  A    between atoms: _348  and  _349
REMARK                            x       y       z     vdW  Elec       q    Type
REMARK                         _______ _______ _______ _____ _____    ______ ____
ROOT
ATOM      1  O   HOH     1      26.048  63.230  13.497  0.00  0.00    +0.000 OA
ENDROOT
TORSDOF 0
REMARK  Name = ../refined-set-2016/3dx3/3dx3_pocket.pdb
REMARK  127 active torsions:
REMARK  status: ('A' for Active; 'I' for Inactive)
REMARK    1  A    between atoms: _1  and  _3
REMARK    2  A    between atoms: _14  and  _17
REMARK    3  A    between atoms: _17  and  _18
REMARK    4  A    between atoms: _25  and  _26
REMARK    5  A    between atoms: _33  and  _34
REMARK    6  A    between atoms: _39  and  _41
REMARK    7  A    between atoms: _41  and  _42
REMARK    8  A    between atoms: _44  and  _46
REMARK    9  A    between atoms: _46  and  _47
REMARK   10  A    between atoms: _46  and  _49
REMARK   11  A    between atoms: _49  and  _50
REMARK   12  A    between atoms: _60  and  _62
REMARK   13  A    between atoms: _62  and  _63
REMARK   14  A    between atoms: _62  and  _65
REMARK   15  A    between atoms: _65  and  _66
REMARK   16  A    between atoms: _69  and  _71
REMARK   17  A    between atoms: _71  and  _72
REMARK   18  A    between atoms: _71  and  _74
REMARK   19  A    between atoms: _74  and  _75
REMARK   20  A    between atoms: _80  and  _81
REMARK   21  A    between atoms: _83  and  _85
REMARK   22  A    between atoms: _85  and  _86
REMARK   23  A    between atoms: _85  and  _88
REMARK   24  A    between atoms: _88  and  _89
REMARK   25  A    between atoms: _89  and  _90
REMARK   26  A    between atoms: _93  and  _95
REMARK   27  A    between atoms: _95  and  _96
REMARK   28  A    between atoms: _95  and  _98
REMARK   29  A    between atoms: _98  and  _99
REMARK   30  A    between atoms: _99  and  _100
REMARK   31  A    between atoms: _102  and  _104
REMARK   32  A    between atoms: _104  and  _105
REMARK   33  A    between atoms: _104  and  _107
REMARK   34  A    between atoms: _107  and  _108
REMARK   35  A    between atoms: _111  and  _113
REMARK   36  A    between atoms: _113  and  _114
REMARK   37  A    between atoms: _113  and  _116
REMARK   38  A    between atoms: _116  and  _117
REMARK   39  A    between atoms: _117  and  _119
REMARK   40  A    between atoms: _119  and  ZN_352
REMARK   41  A    between atoms: _121  and  _122
REMARK   42  A    between atoms: _127  and  _129
REMARK   43  A    between atoms: _129  and  _130
REMARK   44  A    between atoms: _129  and  _132
REMARK   45  A    between atoms: _132  and  _133
REMARK   46  A    between atoms: _139  and  _141
REMARK   47  A    between atoms: _141  and  _142
REMARK   48  A    between atoms: _141  and  _144
REMARK   49  A    between atoms: _144  and  _145
REMARK   50  A    between atoms: _145  and  _146
REMARK   51  A    between atoms: _146  and  _147
REMARK   52  A    between atoms: _156  and  _158
REMARK   53  A    between atoms: _158  and  _159
REMARK   54  A    between atoms: _158  and  _161
REMARK   55  A    between atoms: _161  and  _162
REMARK   56  A    between atoms: _164  and  _166
REMARK   57  A    between atoms: _166  and  _167
REMARK   58  A    between atoms: _166  and  _169
REMARK   59  A    between atoms: _169  and  _170
REMARK   60  A    between atoms: _175  and  _176
REMARK   61  A    between atoms: _178  and  _180
REMARK   62  A    between atoms: _180  and  _181
REMARK   63  A    between atoms: _180  and  _183
REMARK   64  A    between atoms: _183  and  _184
REMARK   65  A    between atoms: _187  and  _189
REMARK   66  A    between atoms: _189  and  _190
REMARK   67  A    between atoms: _189  and  _192
REMARK   68  A    between atoms: _192  and  _193
REMARK   69  A    between atoms: _196  and  _198
REMARK   70  A    between atoms: _198  and  _199
REMARK   71  A    between atoms: _198  and  _201
REMARK   72  A    between atoms: _201  and  _202
REMARK   73  A    between atoms: _208  and  _210
REMARK   74  A    between atoms: _210  and  _211
REMARK   75  A    between atoms: _210  and  _213
REMARK   76  A    between atoms: _213  and  _214
REMARK   77  A    between atoms: _219  and  _220
REMARK   78  A    between atoms: _222  and  _224
REMARK   79  A    between atoms: _224  and  _225
REMARK   80  A    between atoms: _224  and  _227
REMARK   81  A    between atoms: _227  and  _228
REMARK   82  A    between atoms: _231  and  _233
REMARK   83  A    between atoms: _233  and  _234
REMARK   84  A    between atoms: _233  and  _236
REMARK   85  A    between atoms: _236  and  _237
REMARK   86  A    between atoms: _247  and  _249
REMARK   87  A    between atoms: _249  and  _250
REMARK   88  A    between atoms: _249  and  _252
REMARK   89  A    between atoms: _252  and  _253
REMARK   90  A    between atoms: _258  and  _260
REMARK   91  A    between atoms: _260  and  _261
REMARK   92  A    between atoms: _260  and  _263
REMARK   93  A    between atoms: _263  and  _264
REMARK   94  A    between atoms: _268  and  ZN_352
REMARK   95  A    between atoms: _269  and  _271
REMARK   96  A    between atoms: _271  and  _272
REMARK   97  A    between atoms: _271  and  _274
REMARK   98  A    between atoms: _274  and  _275
REMARK   99  A    between atoms: _278  and  _280
REMARK  100  A    between atoms: _280  and  _281
REMARK  101  A    between atoms: _283  and  _285
REMARK  102  A    between atoms: _285  and  _286
REMARK  103  A    between atoms: _285  and  _288
REMARK  104  A    between atoms: _288  and  _289
REMARK  105  A    between atoms: _292  and  _294
REMARK  106  A    between atoms: _294  and  _295
REMARK  107  A    between atoms: _294  and  _297
REMARK  108  A    between atoms: _297  and  _298
REMARK  109  A    between atoms: _301  and  _303
REMARK  110  A    between atoms: _303  and  _304
REMARK  111  A    between atoms: _307  and  _309
REMARK  112  A    between atoms: _309  and  _310
REMARK  113  A    between atoms: _309  and  _312
REMARK  114  A    between atoms: _312  and  _313
REMARK  115  A    between atoms: _318  and  _319
REMARK  116  A    between atoms: _321  and  _323
REMARK  117  A    between atoms: _323  and  _324
REMARK  118  A    between atoms: _323  and  _326
REMARK  119  A    between atoms: _326  and  _327
REMARK  120  A    between atoms: _327  and  _328
REMARK  121  A    between atoms: _328  and  _329
REMARK  122  A    between atoms: _338  and  _340
REMARK  123  A    between atoms: _340  and  _341
REMARK  124  A    between atoms: _343  and  _345
REMARK  125  A    between atoms: _345  and  _346
REMARK  126  A    between atoms: _345  and  _348
REMARK  127  A    between atoms: _348  and  _349
REMARK                            x       y       z     vdW  Elec       q    Type
REMARK                         _______ _______ _______ _____ _____    ______ ____
ROOT
ATOM      1  O   HOH     1      28.724  63.546  13.446  0.00  0.00    +0.000 OA
ENDROOT
TORSDOF 0
REMARK  Name = ../refined-set-2016/3dx3/3dx3_pocket.pdb
REMARK  127 active torsions:
REMARK  status: ('A' for Active; 'I' for Inactive)
REMARK    1  A    between atoms: _1  and  _3
REMARK    2  A    between atoms: _14  and  _17
REMARK    3  A    between atoms: _17  and  _18
REMARK    4  A    between atoms: _25  and  _26
REMARK    5  A    between atoms: _33  and  _34
REMARK    6  A    between atoms: _39  and  _41
REMARK    7  A    between atoms: _41  and  _42
REMARK    8  A    between atoms: _44  and  _46
REMARK    9  A    between atoms: _46  and  _47
REMARK   10  A    between atoms: _46  and  _49
REMARK   11  A    between atoms: _49  and  _50
REMARK   12  A    between atoms: _60  and  _62
REMARK   13  A    between atoms: _62  and  _63
REMARK   14  A    between atoms: _62  and  _65
REMARK   15  A    between atoms: _65  and  _66
REMARK   16  A    between atoms: _69  and  _71
REMARK   17  A    between atoms: _71  and  _72
REMARK   18  A    between atoms: _71  and  _74
REMARK   19  A    between atoms: _74  and  _75
REMARK   20  A    between atoms: _80  and  _81
REMARK   21  A    between atoms: _83  and  _85
REMARK   22  A    between atoms: _85  and  _86
REMARK   23  A    between atoms: _85  and  _88
REMARK   24  A    between atoms: _88  and  _89
REMARK   25  A    between atoms: _89  and  _90
REMARK   26  A    between atoms: _93  and  _95
REMARK   27  A    between atoms: _95  and  _96
REMARK   28  A    between atoms: _95  and  _98
REMARK   29  A    between atoms: _98  and  _99
REMARK   30  A    between atoms: _99  and  _100
REMARK   31  A    between atoms: _102  and  _104
REMARK   32  A    between atoms: _104  and  _105
REMARK   33  A    between atoms: _104  and  _107
REMARK   34  A    between atoms: _107  and  _108
REMARK   35  A    between atoms: _111  and  _113
REMARK   36  A    between atoms: _113  and  _114
REMARK   37  A    between atoms: _113  and  _116
REMARK   38  A    between atoms: _116  and  _117
REMARK   39  A    between atoms: _117  and  _119
REMARK   40  A    between atoms: _119  and  ZN_352
REMARK   41  A    between atoms: _121  and  _122
REMARK   42  A    between atoms: _127  and  _129
REMARK   43  A    between atoms: _129  and  _130
REMARK   44  A    between atoms: _129  and  _132
REMARK   45  A    between atoms: _132  and  _133
REMARK   46  A    between atoms: _139  and  _141
REMARK   47  A    between atoms: _141  and  _142
REMARK   48  A    between atoms: _141  and  _144
REMARK   49  A    between atoms: _144  and  _145
REMARK   50  A    between atoms: _145  and  _146
REMARK   51  A    between atoms: _146  and  _147
REMARK   52  A    between atoms: _156  and  _158
REMARK   53  A    between atoms: _158  and  _159
REMARK   54  A    between atoms: _158  and  _161
REMARK   55  A    between atoms: _161  and  _162
REMARK   56  A    between atoms: _164  and  _166
REMARK   57  A    between atoms: _166  and  _167
REMARK   58  A    between atoms: _166  and  _169
REMARK   59  A    between atoms: _169  and  _170
REMARK   60  A    between atoms: _175  and  _176
REMARK   61  A    between atoms: _178  and  _180
REMARK   62  A    between atoms: _180  and  _181
REMARK   63  A    between atoms: _180  and  _183
REMARK   64  A    between atoms: _183  and  _184
REMARK   65  A    between atoms: _187  and  _189
REMARK   66  A    between atoms: _189  and  _190
REMARK   67  A    between atoms: _189  and  _192
REMARK   68  A    between atoms: _192  and  _193
REMARK   69  A    between atoms: _196  and  _198
REMARK   70  A    between atoms: _198  and  _199
REMARK   71  A    between atoms: _198  and  _201
REMARK   72  A    between atoms: _201  and  _202
REMARK   73  A    between atoms: _208  and  _210
REMARK   74  A    between atoms: _210  and  _211
REMARK   75  A    between atoms: _210  and  _213
REMARK   76  A    between atoms: _213  and  _214
REMARK   77  A    between atoms: _219  and  _220
REMARK   78  A    between atoms: _222  and  _224
REMARK   79  A    between atoms: _224  and  _225
REMARK   80  A    between atoms: _224  and  _227
REMARK   81  A    between atoms: _227  and  _228
REMARK   82  A    between atoms: _231  and  _233
REMARK   83  A    between atoms: _233  and  _234
REMARK   84  A    between atoms: _233  and  _236
REMARK   85  A    between atoms: _236  and  _237
REMARK   86  A    between atoms: _247  and  _249
REMARK   87  A    between atoms: _249  and  _250
REMARK   88  A    between atoms: _249  and  _252
REMARK   89  A    between atoms: _252  and  _253
REMARK   90  A    between atoms: _258  and  _260
REMARK   91  A    between atoms: _260  and  _261
REMARK   92  A    between atoms: _260  and  _263
REMARK   93  A    between atoms: _263  and  _264
REMARK   94  A    between atoms: _268  and  ZN_352
REMARK   95  A    between atoms: _269  and  _271
REMARK   96  A    between atoms: _271  and  _272
REMARK   97  A    between atoms: _271  and  _274
REMARK   98  A    between atoms: _274  and  _275
REMARK   99  A    between atoms: _278  and  _280
REMARK  100  A    between atoms: _280  and  _281
REMARK  101  A    between atoms: _283  and  _285
REMARK  102  A    between atoms: _285  and  _286
REMARK  103  A    between atoms: _285  and  _288
REMARK  104  A    between atoms: _288  and  _289
REMARK  105  A    between atoms: _292  and  _294
REMARK  106  A    between atoms: _294  and  _295
REMARK  107  A    between atoms: _294  and  _297
REMARK  108  A    between atoms: _297  and  _298
REMARK  109  A    between atoms: _301  and  _303
REMARK  110  A    between atoms: _303  and  _304
REMARK  111  A    between atoms: _307  and  _309
REMARK  112  A    between atoms: _309  and  _310
REMARK  113  A    between atoms: _309  and  _312
REMARK  114  A    between atoms: _312  and  _313
REMARK  115  A    between atoms: _318  and  _319
REMARK  116  A    between atoms: _321  and  _323
REMARK  117  A    between atoms: _323  and  _324
REMARK  118  A    between atoms: _323  and  _326
REMARK  119  A    between atoms: _326  and  _327
REMARK  120  A    between atoms: _327  and  _328
REMARK  121  A    between atoms: _328  and  _329
REMARK  122  A    between atoms: _338  and  _340
REMARK  123  A    between atoms: _340  and  _341
REMARK  124  A    between atoms: _343  and  _345
REMARK  125  A    between atoms: _345  and  _346
REMARK  126  A    between atoms: _345  and  _348
REMARK  127  A    between atoms: _348  and  _349
REMARK                            x       y       z     vdW  Elec       q    Type
REMARK                         _______ _______ _______ _____ _____    ______ ____
ROOT
ATOM      1  O   HOH     1      33.195  62.841   0.001  0.00  0.00    +0.000 OA
ENDROOT
TORSDOF 0
REMARK  Name = ../refined-set-2016/3dx3/3dx3_pocket.pdb
REMARK  127 active torsions:
REMARK  status: ('A' for Active; 'I' for Inactive)
REMARK    1  A    between atoms: _1  and  _3
REMARK    2  A    between atoms: _14  and  _17
REMARK    3  A    between atoms: _17  and  _18
REMARK    4  A    between atoms: _25  and  _26
REMARK    5  A    between atoms: _33  and  _34
REMARK    6  A    between atoms: _39  and  _41
REMARK    7  A    between atoms: _41  and  _42
REMARK    8  A    between atoms: _44  and  _46
REMARK    9  A    between atoms: _46  and  _47
REMARK   10  A    between atoms: _46  and  _49
REMARK   11  A    between atoms: _49  and  _50
REMARK   12  A    between atoms: _60  and  _62
REMARK   13  A    between atoms: _62  and  _63
REMARK   14  A    between atoms: _62  and  _65
REMARK   15  A    between atoms: _65  and  _66
REMARK   16  A    between atoms: _69  and  _71
REMARK   17  A    between atoms: _71  and  _72
REMARK   18  A    between atoms: _71  and  _74
REMARK   19  A    between atoms: _74  and  _75
REMARK   20  A    between atoms: _80  and  _81
REMARK   21  A    between atoms: _83  and  _85
REMARK   22  A    between atoms: _85  and  _86
REMARK   23  A    between atoms: _85  and  _88
REMARK   24  A    between atoms: _88  and  _89
REMARK   25  A    between atoms: _89  and  _90
REMARK   26  A    between atoms: _93  and  _95
REMARK   27  A    between atoms: _95  and  _96
REMARK   28  A    between atoms: _95  and  _98
REMARK   29  A    between atoms: _98  and  _99
REMARK   30  A    between atoms: _99  and  _100
REMARK   31  A    between atoms: _102  and  _104
REMARK   32  A    between atoms: _104  and  _105
REMARK   33  A    between atoms: _104  and  _107
REMARK   34  A    between atoms: _107  and  _108
REMARK   35  A    between atoms: _111  and  _113
REMARK   36  A    between atoms: _113  and  _114
REMARK   37  A    between atoms: _113  and  _116
REMARK   38  A    between atoms: _116  and  _117
REMARK   39  A    between atoms: _117  and  _119
REMARK   40  A    between atoms: _119  and  ZN_352
REMARK   41  A    between atoms: _121  and  _122
REMARK   42  A    between atoms: _127  and  _129
REMARK   43  A    between atoms: _129  and  _130
REMARK   44  A    between atoms: _129  and  _132
REMARK   45  A    between atoms: _132  and  _133
REMARK   46  A    between atoms: _139  and  _141
REMARK   47  A    between atoms: _141  and  _142
REMARK   48  A    between atoms: _141  and  _144
REMARK   49  A    between atoms: _144  and  _145
REMARK   50  A    between atoms: _145  and  _146
REMARK   51  A    between atoms: _146  and  _147
REMARK   52  A    between atoms: _156  and  _158
REMARK   53  A    between atoms: _158  and  _159
REMARK   54  A    between atoms: _158  and  _161
REMARK   55  A    between atoms: _161  and  _162
REMARK   56  A    between atoms: _164  and  _166
REMARK   57  A    between atoms: _166  and  _167
REMARK   58  A    between atoms: _166  and  _169
REMARK   59  A    between atoms: _169  and  _170
REMARK   60  A    between atoms: _175  and  _176
REMARK   61  A    between atoms: _178  and  _180
REMARK   62  A    between atoms: _180  and  _181
REMARK   63  A    between atoms: _180  and  _183
REMARK   64  A    between atoms: _183  and  _184
REMARK   65  A    between atoms: _187  and  _189
REMARK   66  A    between atoms: _189  and  _190
REMARK   67  A    between atoms: _189  and  _192
REMARK   68  A    between atoms: _192  and  _193
REMARK   69  A    between atoms: _196  and  _198
REMARK   70  A    between atoms: _198  and  _199
REMARK   71  A    between atoms: _198  and  _201
REMARK   72  A    between atoms: _201  and  _202
REMARK   73  A    between atoms: _208  and  _210
REMARK   74  A    between atoms: _210  and  _211
REMARK   75  A    between atoms: _210  and  _213
REMARK   76  A    between atoms: _213  and  _214
REMARK   77  A    between atoms: _219  and  _220
REMARK   78  A    between atoms: _222  and  _224
REMARK   79  A    between atoms: _224  and  _225
REMARK   80  A    between atoms: _224  and  _227
REMARK   81  A    between atoms: _227  and  _228
REMARK   82  A    between atoms: _231  and  _233
REMARK   83  A    between atoms: _233  and  _234
REMARK   84  A    between atoms: _233  and  _236
REMARK   85  A    between atoms: _236  and  _237
REMARK   86  A    between atoms: _247  and  _249
REMARK   87  A    between atoms: _249  and  _250
REMARK   88  A    between atoms: _249  and  _252
REMARK   89  A    between atoms: _252  and  _253
REMARK   90  A    between atoms: _258  and  _260
REMARK   91  A    between atoms: _260  and  _261
REMARK   92  A    between atoms: _260  and  _263
REMARK   93  A    between atoms: _263  and  _264
REMARK   94  A    between atoms: _268  and  ZN_352
REMARK   95  A    between atoms: _269  and  _271
REMARK   96  A    between atoms: _271  and  _272
REMARK   97  A    between atoms: _271  and  _274
REMARK   98  A    between atoms: _274  and  _275
REMARK   99  A    between atoms: _278  and  _280
REMARK  100  A    between atoms: _280  and  _281
REMARK  101  A    between atoms: _283  and  _285
REMARK  102  A    between atoms: _285  and  _286
REMARK  103  A    between atoms: _285  and  _288
REMARK  104  A    between atoms: _288  and  _289
REMARK  105  A    between atoms: _292  and  _294
REMARK  106  A    between atoms: _294  and  _295
REMARK  107  A    between atoms: _294  and  _297
REMARK  108  A    between atoms: _297  and  _298
REMARK  109  A    between atoms: _301  and  _303
REMARK  110  A    between atoms: _303  and  _304
REMARK  111  A    between atoms: _307  and  _309
REMARK  112  A    between atoms: _309  and  _310
REMARK  113  A    between atoms: _309  and  _312
REMARK  114  A    between atoms: _312  and  _313
REMARK  115  A    between atoms: _318  and  _319
REMARK  116  A    between atoms: _321  and  _323
REMARK  117  A    between atoms: _323  and  _324
REMARK  118  A    between atoms: _323  and  _326
REMARK  119  A    between atoms: _326  and  _327
REMARK  120  A    between atoms: _327  and  _328
REMARK  121  A    between atoms: _328  and  _329
REMARK  122  A    between atoms: _338  and  _340
REMARK  123  A    between atoms: _340  and  _341
REMARK  124  A    between atoms: _343  and  _345
REMARK  125  A    between atoms: _345  and  _346
REMARK  126  A    between atoms: _345  and  _348
REMARK  127  A    between atoms: _348  and  _349
REMARK                            x       y       z     vdW  Elec       q    Type
REMARK                         _______ _______ _______ _____ _____    ______ ____
ROOT
ATOM      1  O   HOH     1      26.086  72.978   5.623  0.00  0.00    +0.000 OA
ENDROOT
TORSDOF 0
REMARK  Name = ../refined-set-2016/3dx3/3dx3_pocket.pdb
REMARK  127 active torsions:
REMARK  status: ('A' for Active; 'I' for Inactive)
REMARK    1  A    between atoms: _1  and  _3
REMARK    2  A    between atoms: _14  and  _17
REMARK    3  A    between atoms: _17  and  _18
REMARK    4  A    between atoms: _25  and  _26
REMARK    5  A    between atoms: _33  and  _34
REMARK    6  A    between atoms: _39  and  _41
REMARK    7  A    between atoms: _41  and  _42
REMARK    8  A    between atoms: _44  and  _46
REMARK    9  A    between atoms: _46  and  _47
REMARK   10  A    between atoms: _46  and  _49
REMARK   11  A    between atoms: _49  and  _50
REMARK   12  A    between atoms: _60  and  _62
REMARK   13  A    between atoms: _62  and  _63
REMARK   14  A    between atoms: _62  and  _65
REMARK   15  A    between atoms: _65  and  _66
REMARK   16  A    between atoms: _69  and  _71
REMARK   17  A    between atoms: _71  and  _72
REMARK   18  A    between atoms: _71  and  _74
REMARK   19  A    between atoms: _74  and  _75
REMARK   20  A    between atoms: _80  and  _81
REMARK   21  A    between atoms: _83  and  _85
REMARK   22  A    between atoms: _85  and  _86
REMARK   23  A    between atoms: _85  and  _88
REMARK   24  A    between atoms: _88  and  _89
REMARK   25  A    between atoms: _89  and  _90
REMARK   26  A    between atoms: _93  and  _95
REMARK   27  A    between atoms: _95  and  _96
REMARK   28  A    between atoms: _95  and  _98
REMARK   29  A    between atoms: _98  and  _99
REMARK   30  A    between atoms: _99  and  _100
REMARK   31  A    between atoms: _102  and  _104
REMARK   32  A    between atoms: _104  and  _105
REMARK   33  A    between atoms: _104  and  _107
REMARK   34  A    between atoms: _107  and  _108
REMARK   35  A    between atoms: _111  and  _113
REMARK   36  A    between atoms: _113  and  _114
REMARK   37  A    between atoms: _113  and  _116
REMARK   38  A    between atoms: _116  and  _117
REMARK   39  A    between atoms: _117  and  _119
REMARK   40  A    between atoms: _119  and  ZN_352
REMARK   41  A    between atoms: _121  and  _122
REMARK   42  A    between atoms: _127  and  _129
REMARK   43  A    between atoms: _129  and  _130
REMARK   44  A    between atoms: _129  and  _132
REMARK   45  A    between atoms: _132  and  _133
REMARK   46  A    between atoms: _139  and  _141
REMARK   47  A    between atoms: _141  and  _142
REMARK   48  A    between atoms: _141  and  _144
REMARK   49  A    between atoms: _144  and  _145
REMARK   50  A    between atoms: _145  and  _146
REMARK   51  A    between atoms: _146  and  _147
REMARK   52  A    between atoms: _156  and  _158
REMARK   53  A    between atoms: _158  and  _159
REMARK   54  A    between atoms: _158  and  _161
REMARK   55  A    between atoms: _161  and  _162
REMARK   56  A    between atoms: _164  and  _166
REMARK   57  A    between atoms: _166  and  _167
REMARK   58  A    between atoms: _166  and  _169
REMARK   59  A    between atoms: _169  and  _170
REMARK   60  A    between atoms: _175  and  _176
REMARK   61  A    between atoms: _178  and  _180
REMARK   62  A    between atoms: _180  and  _181
REMARK   63  A    between atoms: _180  and  _183
REMARK   64  A    between atoms: _183  and  _184
REMARK   65  A    between atoms: _187  and  _189
REMARK   66  A    between atoms: _189  and  _190
REMARK   67  A    between atoms: _189  and  _192
REMARK   68  A    between atoms: _192  and  _193
REMARK   69  A    between atoms: _196  and  _198
REMARK   70  A    between atoms: _198  and  _199
REMARK   71  A    between atoms: _198  and  _201
REMARK   72  A    between atoms: _201  and  _202
REMARK   73  A    between atoms: _208  and  _210
REMARK   74  A    between atoms: _210  and  _211
REMARK   75  A    between atoms: _210  and  _213
REMARK   76  A    between atoms: _213  and  _214
REMARK   77  A    between atoms: _219  and  _220
REMARK   78  A    between atoms: _222  and  _224
REMARK   79  A    between atoms: _224  and  _225
REMARK   80  A    between atoms: _224  and  _227
REMARK   81  A    between atoms: _227  and  _228
REMARK   82  A    between atoms: _231  and  _233
REMARK   83  A    between atoms: _233  and  _234
REMARK   84  A    between atoms: _233  and  _236
REMARK   85  A    between atoms: _236  and  _237
REMARK   86  A    between atoms: _247  and  _249
REMARK   87  A    between atoms: _249  and  _250
REMARK   88  A    between atoms: _249  and  _252
REMARK   89  A    between atoms: _252  and  _253
REMARK   90  A    between atoms: _258  and  _260
REMARK   91  A    between atoms: _260  and  _261
REMARK   92  A    between atoms: _260  and  _263
REMARK   93  A    between atoms: _263  and  _264
REMARK   94  A    between atoms: _268  and  ZN_352
REMARK   95  A    between atoms: _269  and  _271
REMARK   96  A    between atoms: _271  and  _272
REMARK   97  A    between atoms: _271  and  _274
REMARK   98  A    between atoms: _274  and  _275
REMARK   99  A    between atoms: _278  and  _280
REMARK  100  A    between atoms: _280  and  _281
REMARK  101  A    between atoms: _283  and  _285
REMARK  102  A    between atoms: _285  and  _286
REMARK  103  A    between atoms: _285  and  _288
REMARK  104  A    between atoms: _288  and  _289
REMARK  105  A    between atoms: _292  and  _294
REMARK  106  A    between atoms: _294  and  _295
REMARK  107  A    between atoms: _294  and  _297
REMARK  108  A    between atoms: _297  and  _298
REMARK  109  A    between atoms: _301  and  _303
REMARK  110  A    between atoms: _303  and  _304
REMARK  111  A    between atoms: _307  and  _309
REMARK  112  A    between atoms: _309  and  _310
REMARK  113  A    between atoms: _309  and  _312
REMARK  114  A    between atoms: _312  and  _313
REMARK  115  A    between atoms: _318  and  _319
REMARK  116  A    between atoms: _321  and  _323
REMARK  117  A    between atoms: _323  and  _324
REMARK  118  A    between atoms: _323  and  _326
REMARK  119  A    between atoms: _326  and  _327
REMARK  120  A    between atoms: _327  and  _328
REMARK  121  A    between atoms: _328  and  _329
REMARK  122  A    between atoms: _338  and  _340
REMARK  123  A    between atoms: _340  and  _341
REMARK  124  A    between atoms: _343  and  _345
REMARK  125  A    between atoms: _345  and  _346
REMARK  126  A    between atoms: _345  and  _348
REMARK  127  A    between atoms: _348  and  _349
REMARK                            x       y       z     vdW  Elec       q    Type
REMARK                         _______ _______ _______ _____ _____    ______ ____
ROOT
ATOM      1  O   HOH     1      40.302  62.885   6.006  0.00  0.00    +0.000 OA
ENDROOT
TORSDOF 0
REMARK  Name = ../refined-set-2016/3dx3/3dx3_pocket.pdb
REMARK  127 active torsions:
REMARK  status: ('A' for Active; 'I' for Inactive)
REMARK    1  A    between atoms: _1  and  _3
REMARK    2  A    between atoms: _14  and  _17
REMARK    3  A    between atoms: _17  and  _18
REMARK    4  A    between atoms: _25  and  _26
REMARK    5  A    between atoms: _33  and  _34
REMARK    6  A    between atoms: _39  and  _41
REMARK    7  A    between atoms: _41  and  _42
REMARK    8  A    between atoms: _44  and  _46
REMARK    9  A    between atoms: _46  and  _47
REMARK   10  A    between atoms: _46  and  _49
REMARK   11  A    between atoms: _49  and  _50
REMARK   12  A    between atoms: _60  and  _62
REMARK   13  A    between atoms: _62  and  _63
REMARK   14  A    between atoms: _62  and  _65
REMARK   15  A    between atoms: _65  and  _66
REMARK   16  A    between atoms: _69  and  _71
REMARK   17  A    between atoms: _71  and  _72
REMARK   18  A    between atoms: _71  and  _74
REMARK   19  A    between atoms: _74  and  _75
REMARK   20  A    between atoms: _80  and  _81
REMARK   21  A    between atoms: _83  and  _85
REMARK   22  A    between atoms: _85  and  _86
REMARK   23  A    between atoms: _85  and  _88
REMARK   24  A    between atoms: _88  and  _89
REMARK   25  A    between atoms: _89  and  _90
REMARK   26  A    between atoms: _93  and  _95
REMARK   27  A    between atoms: _95  and  _96
REMARK   28  A    between atoms: _95  and  _98
REMARK   29  A    between atoms: _98  and  _99
REMARK   30  A    between atoms: _99  and  _100
REMARK   31  A    between atoms: _102  and  _104
REMARK   32  A    between atoms: _104  and  _105
REMARK   33  A    between atoms: _104  and  _107
REMARK   34  A    between atoms: _107  and  _108
REMARK   35  A    between atoms: _111  and  _113
REMARK   36  A    between atoms: _113  and  _114
REMARK   37  A    between atoms: _113  and  _116
REMARK   38  A    between atoms: _116  and  _117
REMARK   39  A    between atoms: _117  and  _119
REMARK   40  A    between atoms: _119  and  ZN_352
REMARK   41  A    between atoms: _121  and  _122
REMARK   42  A    between atoms: _127  and  _129
REMARK   43  A    between atoms: _129  and  _130
REMARK   44  A    between atoms: _129  and  _132
REMARK   45  A    between atoms: _132  and  _133
REMARK   46  A    between atoms: _139  and  _141
REMARK   47  A    between atoms: _141  and  _142
REMARK   48  A    between atoms: _141  and  _144
REMARK   49  A    between atoms: _144  and  _145
REMARK   50  A    between atoms: _145  and  _146
REMARK   51  A    between atoms: _146  and  _147
REMARK   52  A    between atoms: _156  and  _158
REMARK   53  A    between atoms: _158  and  _159
REMARK   54  A    between atoms: _158  and  _161
REMARK   55  A    between atoms: _161  and  _162
REMARK   56  A    between atoms: _164  and  _166
REMARK   57  A    between atoms: _166  and  _167
REMARK   58  A    between atoms: _166  and  _169
REMARK   59  A    between atoms: _169  and  _170
REMARK   60  A    between atoms: _175  and  _176
REMARK   61  A    between atoms: _178  and  _180
REMARK   62  A    between atoms: _180  and  _181
REMARK   63  A    between atoms: _180  and  _183
REMARK   64  A    between atoms: _183  and  _184
REMARK   65  A    between atoms: _187  and  _189
REMARK   66  A    between atoms: _189  and  _190
REMARK   67  A    between atoms: _189  and  _192
REMARK   68  A    between atoms: _192  and  _193
REMARK   69  A    between atoms: _196  and  _198
REMARK   70  A    between atoms: _198  and  _199
REMARK   71  A    between atoms: _198  and  _201
REMARK   72  A    between atoms: _201  and  _202
REMARK   73  A    between atoms: _208  and  _210
REMARK   74  A    between atoms: _210  and  _211
REMARK   75  A    between atoms: _210  and  _213
REMARK   76  A    between atoms: _213  and  _214
REMARK   77  A    between atoms: _219  and  _220
REMARK   78  A    between atoms: _222  and  _224
REMARK   79  A    between atoms: _224  and  _225
REMARK   80  A    between atoms: _224  and  _227
REMARK   81  A    between atoms: _227  and  _228
REMARK   82  A    between atoms: _231  and  _233
REMARK   83  A    between atoms: _233  and  _234
REMARK   84  A    between atoms: _233  and  _236
REMARK   85  A    between atoms: _236  and  _237
REMARK   86  A    between atoms: _247  and  _249
REMARK   87  A    between atoms: _249  and  _250
REMARK   88  A    between atoms: _249  and  _252
REMARK   89  A    between atoms: _252  and  _253
REMARK   90  A    between atoms: _258  and  _260
REMARK   91  A    between atoms: _260  and  _261
REMARK   92  A    between atoms: _260  and  _263
REMARK   93  A    between atoms: _263  and  _264
REMARK   94  A    between atoms: _268  and  ZN_352
REMARK   95  A    between atoms: _269  and  _271
REMARK   96  A    between atoms: _271  and  _272
REMARK   97  A    between atoms: _271  and  _274
REMARK   98  A    between atoms: _274  and  _275
REMARK   99  A    between atoms: _278  and  _280
REMARK  100  A    between atoms: _280  and  _281
REMARK  101  A    between atoms: _283  and  _285
REMARK  102  A    between atoms: _285  and  _286
REMARK  103  A    between atoms: _285  and  _288
REMARK  104  A    between atoms: _288  and  _289
REMARK  105  A    between atoms: _292  and  _294
REMARK  106  A    between atoms: _294  and  _295
REMARK  107  A    between atoms: _294  and  _297
REMARK  108  A    between atoms: _297  and  _298
REMARK  109  A    between atoms: _301  and  _303
REMARK  110  A    between atoms: _303  and  _304
REMARK  111  A    between atoms: _307  and  _309
REMARK  112  A    between atoms: _309  and  _310
REMARK  113  A    between atoms: _309  and  _312
REMARK  114  A    between atoms: _312  and  _313
REMARK  115  A    between atoms: _318  and  _319
REMARK  116  A    between atoms: _321  and  _323
REMARK  117  A    between atoms: _323  and  _324
REMARK  118  A    between atoms: _323  and  _326
REMARK  119  A    between atoms: _326  and  _327
REMARK  120  A    between atoms: _327  and  _328
REMARK  121  A    between atoms: _328  and  _329
REMARK  122  A    between atoms: _338  and  _340
REMARK  123  A    between atoms: _340  and  _341
REMARK  124  A    between atoms: _343  and  _345
REMARK  125  A    between atoms: _345  and  _346
REMARK  126  A    between atoms: _345  and  _348
REMARK  127  A    between atoms: _348  and  _349
REMARK                            x       y       z     vdW  Elec       q    Type
REMARK                         _______ _______ _______ _____ _____    ______ ____
ROOT
ATOM      1  O   HOH     1      38.789  62.513   8.375  0.00  0.00    +0.000 OA
ENDROOT
TORSDOF 0
REMARK  Name = ../refined-set-2016/3dx3/3dx3_pocket.pdb
REMARK  127 active torsions:
REMARK  status: ('A' for Active; 'I' for Inactive)
REMARK    1  A    between atoms: _1  and  _3
REMARK    2  A    between atoms: _14  and  _17
REMARK    3  A    between atoms: _17  and  _18
REMARK    4  A    between atoms: _25  and  _26
REMARK    5  A    between atoms: _33  and  _34
REMARK    6  A    between atoms: _39  and  _41
REMARK    7  A    between atoms: _41  and  _42
REMARK    8  A    between atoms: _44  and  _46
REMARK    9  A    between atoms: _46  and  _47
REMARK   10  A    between atoms: _46  and  _49
REMARK   11  A    between atoms: _49  and  _50
REMARK   12  A    between atoms: _60  and  _62
REMARK   13  A    between atoms: _62  and  _63
REMARK   14  A    between atoms: _62  and  _65
REMARK   15  A    between atoms: _65  and  _66
REMARK   16  A    between atoms: _69  and  _71
REMARK   17  A    between atoms: _71  and  _72
REMARK   18  A    between atoms: _71  and  _74
REMARK   19  A    between atoms: _74  and  _75
REMARK   20  A    between atoms: _80  and  _81
REMARK   21  A    between atoms: _83  and  _85
REMARK   22  A    between atoms: _85  and  _86
REMARK   23  A    between atoms: _85  and  _88
REMARK   24  A    between atoms: _88  and  _89
REMARK   25  A    between atoms: _89  and  _90
REMARK   26  A    between atoms: _93  and  _95
REMARK   27  A    between atoms: _95  and  _96
REMARK   28  A    between atoms: _95  and  _98
REMARK   29  A    between atoms: _98  and  _99
REMARK   30  A    between atoms: _99  and  _100
REMARK   31  A    between atoms: _102  and  _104
REMARK   32  A    between atoms: _104  and  _105
REMARK   33  A    between atoms: _104  and  _107
REMARK   34  A    between atoms: _107  and  _108
REMARK   35  A    between atoms: _111  and  _113
REMARK   36  A    between atoms: _113  and  _114
REMARK   37  A    between atoms: _113  and  _116
REMARK   38  A    between atoms: _116  and  _117
REMARK   39  A    between atoms: _117  and  _119
REMARK   40  A    between atoms: _119  and  ZN_352
REMARK   41  A    between atoms: _121  and  _122
REMARK   42  A    between atoms: _127  and  _129
REMARK   43  A    between atoms: _129  and  _130
REMARK   44  A    between atoms: _129  and  _132
REMARK   45  A    between atoms: _132  and  _133
REMARK   46  A    between atoms: _139  and  _141
REMARK   47  A    between atoms: _141  and  _142
REMARK   48  A    between atoms: _141  and  _144
REMARK   49  A    between atoms: _144  and  _145
REMARK   50  A    between atoms: _145  and  _146
REMARK   51  A    between atoms: _146  and  _147
REMARK   52  A    between atoms: _156  and  _158
REMARK   53  A    between atoms: _158  and  _159
REMARK   54  A    between atoms: _158  and  _161
REMARK   55  A    between atoms: _161  and  _162
REMARK   56  A    between atoms: _164  and  _166
REMARK   57  A    between atoms: _166  and  _167
REMARK   58  A    between atoms: _166  and  _169
REMARK   59  A    between atoms: _169  and  _170
REMARK   60  A    between atoms: _175  and  _176
REMARK   61  A    between atoms: _178  and  _180
REMARK   62  A    between atoms: _180  and  _181
REMARK   63  A    between atoms: _180  and  _183
REMARK   64  A    between atoms: _183  and  _184
REMARK   65  A    between atoms: _187  and  _189
REMARK   66  A    between atoms: _189  and  _190
REMARK   67  A    between atoms: _189  and  _192
REMARK   68  A    between atoms: _192  and  _193
REMARK   69  A    between atoms: _196  and  _198
REMARK   70  A    between atoms: _198  and  _199
REMARK   71  A    between atoms: _198  and  _201
REMARK   72  A    between atoms: _201  and  _202
REMARK   73  A    between atoms: _208  and  _210
REMARK   74  A    between atoms: _210  and  _211
REMARK   75  A    between atoms: _210  and  _213
REMARK   76  A    between atoms: _213  and  _214
REMARK   77  A    between atoms: _219  and  _220
REMARK   78  A    between atoms: _222  and  _224
REMARK   79  A    between atoms: _224  and  _225
REMARK   80  A    between atoms: _224  and  _227
REMARK   81  A    between atoms: _227  and  _228
REMARK   82  A    between atoms: _231  and  _233
REMARK   83  A    between atoms: _233  and  _234
REMARK   84  A    between atoms: _233  and  _236
REMARK   85  A    between atoms: _236  and  _237
REMARK   86  A    between atoms: _247  and  _249
REMARK   87  A    between atoms: _249  and  _250
REMARK   88  A    between atoms: _249  and  _252
REMARK   89  A    between atoms: _252  and  _253
REMARK   90  A    between atoms: _258  and  _260
REMARK   91  A    between atoms: _260  and  _261
REMARK   92  A    between atoms: _260  and  _263
REMARK   93  A    between atoms: _263  and  _264
REMARK   94  A    between atoms: _268  and  ZN_352
REMARK   95  A    between atoms: _269  and  _271
REMARK   96  A    between atoms: _271  and  _272
REMARK   97  A    between atoms: _271  and  _274
REMARK   98  A    between atoms: _274  and  _275
REMARK   99  A    between atoms: _278  and  _280
REMARK  100  A    between atoms: _280  and  _281
REMARK  101  A    between atoms: _283  and  _285
REMARK  102  A    between atoms: _285  and  _286
REMARK  103  A    between atoms: _285  and  _288
REMARK  104  A    between atoms: _288  and  _289
REMARK  105  A    between atoms: _292  and  _294
REMARK  106  A    between atoms: _294  and  _295
REMARK  107  A    between atoms: _294  and  _297
REMARK  108  A    between atoms: _297  and  _298
REMARK  109  A    between atoms: _301  and  _303
REMARK  110  A    between atoms: _303  and  _304
REMARK  111  A    between atoms: _307  and  _309
REMARK  112  A    between atoms: _309  and  _310
REMARK  113  A    between atoms: _309  and  _312
REMARK  114  A    between atoms: _312  and  _313
REMARK  115  A    between atoms: _318  and  _319
REMARK  116  A    between atoms: _321  and  _323
REMARK  117  A    between atoms: _323  and  _324
REMARK  118  A    between atoms: _323  and  _326
REMARK  119  A    between atoms: _326  and  _327
REMARK  120  A    between atoms: _327  and  _328
REMARK  121  A    between atoms: _328  and  _329
REMARK  122  A    between atoms: _338  and  _340
REMARK  123  A    between atoms: _340  and  _341
REMARK  124  A    between atoms: _343  and  _345
REMARK  125  A    between atoms: _345  and  _346
REMARK  126  A    between atoms: _345  and  _348
REMARK  127  A    between atoms: _348  and  _349
REMARK                            x       y       z     vdW  Elec       q    Type
REMARK                         _______ _______ _______ _____ _____    ______ ____
ROOT
ATOM      1  O   HOH     1      37.773  59.167  11.013  0.00  0.00    +0.000 OA
ENDROOT
TORSDOF 0
