REMARK  Name = ../refined-set-2016/1mtr/1mtr_pocket.pdb
REMARK  221 active torsions:
REMARK  status: ('A' for Active; 'I' for Inactive)
REMARK    1  A    between atoms: _1  and  _3
REMARK    2  A    between atoms: _3  and  _4
REMARK    3  A    between atoms: _3  and  _6
REMARK    4  A    between atoms: _6  and  _7
REMARK    5  A    between atoms: _7  and  _8
REMARK    6  A    between atoms: _8  and  _9
REMARK    7  A    between atoms: _18  and  _20
REMARK    8  A    between atoms: _20  and  _21
REMARK    9  A    between atoms: _20  and  _23
REMARK   10  A    between atoms: _23  and  _24
REMARK   11  A    between atoms: _27  and  _29
REMARK   12  A    between atoms: _29  and  _30
REMARK   13  A    between atoms: _29  and  _32
REMARK   14  A    between atoms: _32  and  _33
REMARK   15  A    between atoms: _36  and  _38
REMARK   16  A    between atoms: _38  and  _39
REMARK   17  A    between atoms: _38  and  _41
REMARK   18  A    between atoms: _41  and  _42
REMARK   19  A    between atoms: _45  and  _47
REMARK   20  A    between atoms: _47  and  _48
REMARK   21  A    between atoms: _47  and  _50
REMARK   22  A    between atoms: _50  and  _51
REMARK   23  A    between atoms: _54  and  _56
REMARK   24  A    between atoms: _56  and  _57
REMARK   25  A    between atoms: _59  and  _61
REMARK   26  A    between atoms: _61  and  _62
REMARK   27  A    between atoms: _65  and  _67
REMARK   28  A    between atoms: _67  and  _68
REMARK   29  A    between atoms: _67  and  _70
REMARK   30  A    between atoms: _70  and  _71
REMARK   31  A    between atoms: _74  and  _76
REMARK   32  A    between atoms: _76  and  _77
REMARK   33  A    between atoms: _76  and  _79
REMARK   34  A    between atoms: _79  and  _80
REMARK   35  A    between atoms: _83  and  _85
REMARK   36  A    between atoms: _85  and  _86
REMARK   37  A    between atoms: _85  and  _88
REMARK   38  A    between atoms: _88  and  _89
REMARK   39  A    between atoms: _92  and  _94
REMARK   40  A    between atoms: _94  and  _95
REMARK   41  A    between atoms: _94  and  _97
REMARK   42  A    between atoms: _100  and  _102
REMARK   43  A    between atoms: _102  and  _103
REMARK   44  A    between atoms: _102  and  _105
REMARK   45  A    between atoms: _105  and  _106
REMARK   46  A    between atoms: _106  and  _107
REMARK   47  A    between atoms: _109  and  _111
REMARK   48  A    between atoms: _111  and  _112
REMARK   49  A    between atoms: _111  and  _114
REMARK   50  A    between atoms: _114  and  _115
REMARK   51  A    between atoms: _118  and  _120
REMARK   52  A    between atoms: _120  and  _121
REMARK   53  A    between atoms: _123  and  _125
REMARK   54  A    between atoms: _125  and  _126
REMARK   55  A    between atoms: _128  and  _130
REMARK   56  A    between atoms: _130  and  _131
REMARK   57  A    between atoms: _130  and  _133
REMARK   58  A    between atoms: _133  and  _134
REMARK   59  A    between atoms: _137  and  _139
REMARK   60  A    between atoms: _139  and  _140
REMARK   61  A    between atoms: _142  and  _144
REMARK   62  A    between atoms: _144  and  _145
REMARK   63  A    between atoms: _147  and  _149
REMARK   64  A    between atoms: _149  and  _150
REMARK   65  A    between atoms: _149  and  _152
REMARK   66  A    between atoms: _152  and  _153
REMARK   67  A    between atoms: _159  and  _161
REMARK   68  A    between atoms: _161  and  _162
REMARK   69  A    between atoms: _161  and  _164
REMARK   70  A    between atoms: _164  and  _165
REMARK   71  A    between atoms: _168  and  _170
REMARK   72  A    between atoms: _170  and  _171
REMARK   73  A    between atoms: _170  and  _173
REMARK   74  A    between atoms: _176  and  _178
REMARK   75  A    between atoms: _178  and  _179
REMARK   76  A    between atoms: _178  and  _181
REMARK   77  A    between atoms: _181  and  _182
REMARK   78  A    between atoms: _185  and  _187
REMARK   79  A    between atoms: _187  and  _188
REMARK   80  A    between atoms: _187  and  _190
REMARK   81  A    between atoms: _190  and  _191
REMARK   82  A    between atoms: _195  and  _196
REMARK   83  A    between atoms: _201  and  _203
REMARK   84  A    between atoms: _203  and  _204
REMARK   85  A    between atoms: _203  and  _206
REMARK   86  A    between atoms: _209  and  _211
REMARK   87  A    between atoms: _211  and  _212
REMARK   88  A    between atoms: _211  and  _214
REMARK   89  A    between atoms: _214  and  _215
REMARK   90  A    between atoms: _220  and  _222
REMARK   91  A    between atoms: _222  and  _223
REMARK   92  A    between atoms: _222  and  _225
REMARK   93  A    between atoms: _225  and  _226
REMARK   94  A    between atoms: _229  and  _231
REMARK   95  A    between atoms: _231  and  _232
REMARK   96  A    between atoms: _231  and  _234
REMARK   97  A    between atoms: _234  and  _235
REMARK   98  A    between atoms: _238  and  _240
REMARK   99  A    between atoms: _240  and  _241
REMARK  100  A    between atoms: _243  and  _245
REMARK  101  A    between atoms: _245  and  _246
REMARK  102  A    between atoms: _245  and  _248
REMARK  103  A    between atoms: _248  and  _249
REMARK  104  A    between atoms: _249  and  _250
REMARK  105  A    between atoms: _250  and  _251
REMARK  106  A    between atoms: _260  and  _262
REMARK  107  A    between atoms: _262  and  _263
REMARK  108  A    between atoms: _262  and  _265
REMARK  109  A    between atoms: _265  and  _266
REMARK  110  A    between atoms: _271  and  _273
REMARK  111  A    between atoms: _273  and  _274
REMARK  112  A    between atoms: _273  and  _276
REMARK  113  A    between atoms: _276  and  _277
REMARK  114  A    between atoms: _277  and  _278
REMARK  115  A    between atoms: _278  and  _279
REMARK  116  A    between atoms: _288  and  _290
REMARK  117  A    between atoms: _290  and  _291
REMARK  118  A    between atoms: _290  and  _293
REMARK  119  A    between atoms: _293  and  _294
REMARK  120  A    between atoms: _297  and  _299
REMARK  121  A    between atoms: _299  and  _300
REMARK  122  A    between atoms: _299  and  _302
REMARK  123  A    between atoms: _302  and  _303
REMARK  124  A    between atoms: _306  and  _308
REMARK  125  A    between atoms: _308  and  _309
REMARK  126  A    between atoms: _308  and  _311
REMARK  127  A    between atoms: _311  and  _312
REMARK  128  A    between atoms: _315  and  _317
REMARK  129  A    between atoms: _317  and  _318
REMARK  130  A    between atoms: _317  and  _320
REMARK  131  A    between atoms: _320  and  _321
REMARK  132  A    between atoms: _324  and  _326
REMARK  133  A    between atoms: _326  and  _327
REMARK  134  A    between atoms: _329  and  _331
REMARK  135  A    between atoms: _331  and  _332
REMARK  136  A    between atoms: _335  and  _337
REMARK  137  A    between atoms: _337  and  _338
REMARK  138  A    between atoms: _337  and  _340
REMARK  139  A    between atoms: _340  and  _341
REMARK  140  A    between atoms: _344  and  _346
REMARK  141  A    between atoms: _346  and  _347
REMARK  142  A    between atoms: _346  and  _349
REMARK  143  A    between atoms: _349  and  _350
REMARK  144  A    between atoms: _353  and  _355
REMARK  145  A    between atoms: _355  and  _356
REMARK  146  A    between atoms: _355  and  _358
REMARK  147  A    between atoms: _358  and  _359
REMARK  148  A    between atoms: _362  and  _364
REMARK  149  A    between atoms: _364  and  _365
REMARK  150  A    between atoms: _364  and  _367
REMARK  151  A    between atoms: _370  and  _372
REMARK  152  A    between atoms: _372  and  _373
REMARK  153  A    between atoms: _372  and  _375
REMARK  154  A    between atoms: _375  and  _376
REMARK  155  A    between atoms: _376  and  _377
REMARK  156  A    between atoms: _377  and  _378
REMARK  157  A    between atoms: _378  and  _379
REMARK  158  A    between atoms: _383  and  _385
REMARK  159  A    between atoms: _385  and  _386
REMARK  160  A    between atoms: _385  and  _388
REMARK  161  A    between atoms: _388  and  _389
REMARK  162  A    between atoms: _389  and  _390
REMARK  163  A    between atoms: _392  and  _394
REMARK  164  A    between atoms: _394  and  _395
REMARK  165  A    between atoms: _394  and  _397
REMARK  166  A    between atoms: _397  and  _398
REMARK  167  A    between atoms: _401  and  _403
REMARK  168  A    between atoms: _403  and  _404
REMARK  169  A    between atoms: _406  and  _408
REMARK  170  A    between atoms: _408  and  _409
REMARK  171  A    between atoms: _411  and  _413
REMARK  172  A    between atoms: _413  and  _414
REMARK  173  A    between atoms: _413  and  _416
REMARK  174  A    between atoms: _416  and  _417
REMARK  175  A    between atoms: _420  and  _422
REMARK  176  A    between atoms: _422  and  _423
REMARK  177  A    between atoms: _425  and  _427
REMARK  178  A    between atoms: _427  and  _428
REMARK  179  A    between atoms: _430  and  _432
REMARK  180  A    between atoms: _432  and  _433
REMARK  181  A    between atoms: _432  and  _435
REMARK  182  A    between atoms: _435  and  _436
REMARK  183  A    between atoms: _442  and  _444
REMARK  184  A    between atoms: _444  and  _445
REMARK  185  A    between atoms: _444  and  _447
REMARK  186  A    between atoms: _447  and  _448
REMARK  187  A    between atoms: _451  and  _453
REMARK  188  A    between atoms: _453  and  _454
REMARK  189  A    between atoms: _453  and  _456
REMARK  190  A    between atoms: _459  and  _461
REMARK  191  A    between atoms: _461  and  _462
REMARK  192  A    between atoms: _461  and  _464
REMARK  193  A    between atoms: _464  and  _465
REMARK  194  A    between atoms: _468  and  _470
REMARK  195  A    between atoms: _470  and  _471
REMARK  196  A    between atoms: _470  and  _473
REMARK  197  A    between atoms: _473  and  _474
REMARK  198  A    between atoms: _478  and  _479
REMARK  199  A    between atoms: _484  and  _486
REMARK  200  A    between atoms: _486  and  _487
REMARK  201  A    between atoms: _486  and  _489
REMARK  202  A    between atoms: _492  and  _494
REMARK  203  A    between atoms: _494  and  _495
REMARK  204  A    between atoms: _494  and  _497
REMARK  205  A    between atoms: _497  and  _498
REMARK  206  A    between atoms: _503  and  _505
REMARK  207  A    between atoms: _505  and  _506
REMARK  208  A    between atoms: _505  and  _508
REMARK  209  A    between atoms: _508  and  _509
REMARK  210  A    between atoms: _512  and  _514
REMARK  211  A    between atoms: _514  and  _515
REMARK  212  A    between atoms: _514  and  _517
REMARK  213  A    between atoms: _517  and  _518
REMARK  214  A    between atoms: _521  and  _523
REMARK  215  A    between atoms: _523  and  _524
REMARK  216  A    between atoms: _526  and  _528
REMARK  217  A    between atoms: _528  and  _529
REMARK  218  A    between atoms: _528  and  _531
REMARK  219  A    between atoms: _531  and  _532
REMARK  220  A    between atoms: _532  and  _533
REMARK  221  A    between atoms: _533  and  _534
REMARK                            x       y       z     vdW  Elec       q    Type
REMARK                         _______ _______ _______ _____ _____    ______ ____
ROOT
ATOM      1  NE  ARG A   1       3.803  -7.852  23.206  0.00  0.00    -0.265 N 
ATOM      2  HE  ARG A   1       4.730  -8.097  23.609  0.00  0.00    +0.259 HD
ATOM      3  CZ  ARG A   1       3.491  -8.348  22.010  0.00  0.00    +0.342 C 
ATOM      4  NH2 ARG A   1       2.315  -8.050  21.447  0.00  0.00    -0.292 N 
ATOM      5 HH21 ARG A   1       1.643  -7.430  21.943  0.00  0.00    +0.255 HD
ATOM      6 HH22 ARG A   1       2.072  -8.438  20.513  0.00  0.00    +0.255 HD
ATOM      7  NH1 ARG A   1       4.350  -9.150  21.380  0.00  0.00    -0.292 N 
ATOM      8 HH11 ARG A   1       5.261  -9.387  21.823  0.00  0.00    +0.255 HD
ATOM      9 HH12 ARG A   1       4.109  -9.539  20.446  0.00  0.00    +0.255 HD
ENDROOT
BRANCH   1  10
ATOM     10  CD  ARG A   1       2.918  -6.979  23.993  0.00  0.00    +0.174 C 
BRANCH  10  11
ATOM     11  CG  ARG A   1       3.680  -6.185  25.005  0.00  0.00    +0.045 C 
BRANCH  11  12
ATOM     12  CB  ARG A   1       2.708  -5.483  25.886  0.00  0.00    +0.029 C 
BRANCH  12  13
ATOM     13  CA  ARG A   1       3.345  -4.504  26.856  0.00  0.00    +0.133 C 
BRANCH  13  14
ATOM     14  N   ARG A   1       3.941  -5.221  27.978  0.00  0.00    -0.239 NA
ATOM     15  H   ARG A   1       3.882  -6.259  28.015  0.00  0.00    +0.142 HD
ENDBRANCH  13  14
BRANCH  13  16
ATOM     16  C   ARG A   1       2.248  -3.616  27.437  0.00  0.00    +0.224 C 
ATOM     17  O   ARG A   1       1.491  -4.039  28.325  0.00  0.00    -0.287 OA
ENDBRANCH  13  16
ENDBRANCH  12  13
ENDBRANCH  11  12
ENDBRANCH  10  11
ENDBRANCH   1  10
TORSDOF 6
REMARK  Name = ../refined-set-2016/1mtr/1mtr_pocket.pdb
REMARK  221 active torsions:
REMARK  status: ('A' for Active; 'I' for Inactive)
REMARK    1  A    between atoms: _1  and  _3
REMARK    2  A    between atoms: _3  and  _4
REMARK    3  A    between atoms: _3  and  _6
REMARK    4  A    between atoms: _6  and  _7
REMARK    5  A    between atoms: _7  and  _8
REMARK    6  A    between atoms: _8  and  _9
REMARK    7  A    between atoms: _18  and  _20
REMARK    8  A    between atoms: _20  and  _21
REMARK    9  A    between atoms: _20  and  _23
REMARK   10  A    between atoms: _23  and  _24
REMARK   11  A    between atoms: _27  and  _29
REMARK   12  A    between atoms: _29  and  _30
REMARK   13  A    between atoms: _29  and  _32
REMARK   14  A    between atoms: _32  and  _33
REMARK   15  A    between atoms: _36  and  _38
REMARK   16  A    between atoms: _38  and  _39
REMARK   17  A    between atoms: _38  and  _41
REMARK   18  A    between atoms: _41  and  _42
REMARK   19  A    between atoms: _45  and  _47
REMARK   20  A    between atoms: _47  and  _48
REMARK   21  A    between atoms: _47  and  _50
REMARK   22  A    between atoms: _50  and  _51
REMARK   23  A    between atoms: _54  and  _56
REMARK   24  A    between atoms: _56  and  _57
REMARK   25  A    between atoms: _59  and  _61
REMARK   26  A    between atoms: _61  and  _62
REMARK   27  A    between atoms: _65  and  _67
REMARK   28  A    between atoms: _67  and  _68
REMARK   29  A    between atoms: _67  and  _70
REMARK   30  A    between atoms: _70  and  _71
REMARK   31  A    between atoms: _74  and  _76
REMARK   32  A    between atoms: _76  and  _77
REMARK   33  A    between atoms: _76  and  _79
REMARK   34  A    between atoms: _79  and  _80
REMARK   35  A    between atoms: _83  and  _85
REMARK   36  A    between atoms: _85  and  _86
REMARK   37  A    between atoms: _85  and  _88
REMARK   38  A    between atoms: _88  and  _89
REMARK   39  A    between atoms: _92  and  _94
REMARK   40  A    between atoms: _94  and  _95
REMARK   41  A    between atoms: _94  and  _97
REMARK   42  A    between atoms: _100  and  _102
REMARK   43  A    between atoms: _102  and  _103
REMARK   44  A    between atoms: _102  and  _105
REMARK   45  A    between atoms: _105  and  _106
REMARK   46  A    between atoms: _106  and  _107
REMARK   47  A    between atoms: _109  and  _111
REMARK   48  A    between atoms: _111  and  _112
REMARK   49  A    between atoms: _111  and  _114
REMARK   50  A    between atoms: _114  and  _115
REMARK   51  A    between atoms: _118  and  _120
REMARK   52  A    between atoms: _120  and  _121
REMARK   53  A    between atoms: _123  and  _125
REMARK   54  A    between atoms: _125  and  _126
REMARK   55  A    between atoms: _128  and  _130
REMARK   56  A    between atoms: _130  and  _131
REMARK   57  A    between atoms: _130  and  _133
REMARK   58  A    between atoms: _133  and  _134
REMARK   59  A    between atoms: _137  and  _139
REMARK   60  A    between atoms: _139  and  _140
REMARK   61  A    between atoms: _142  and  _144
REMARK   62  A    between atoms: _144  and  _145
REMARK   63  A    between atoms: _147  and  _149
REMARK   64  A    between atoms: _149  and  _150
REMARK   65  A    between atoms: _149  and  _152
REMARK   66  A    between atoms: _152  and  _153
REMARK   67  A    between atoms: _159  and  _161
REMARK   68  A    between atoms: _161  and  _162
REMARK   69  A    between atoms: _161  and  _164
REMARK   70  A    between atoms: _164  and  _165
REMARK   71  A    between atoms: _168  and  _170
REMARK   72  A    between atoms: _170  and  _171
REMARK   73  A    between atoms: _170  and  _173
REMARK   74  A    between atoms: _176  and  _178
REMARK   75  A    between atoms: _178  and  _179
REMARK   76  A    between atoms: _178  and  _181
REMARK   77  A    between atoms: _181  and  _182
REMARK   78  A    between atoms: _185  and  _187
REMARK   79  A    between atoms: _187  and  _188
REMARK   80  A    between atoms: _187  and  _190
REMARK   81  A    between atoms: _190  and  _191
REMARK   82  A    between atoms: _195  and  _196
REMARK   83  A    between atoms: _201  and  _203
REMARK   84  A    between atoms: _203  and  _204
REMARK   85  A    between atoms: _203  and  _206
REMARK   86  A    between atoms: _209  and  _211
REMARK   87  A    between atoms: _211  and  _212
REMARK   88  A    between atoms: _211  and  _214
REMARK   89  A    between atoms: _214  and  _215
REMARK   90  A    between atoms: _220  and  _222
REMARK   91  A    between atoms: _222  and  _223
REMARK   92  A    between atoms: _222  and  _225
REMARK   93  A    between atoms: _225  and  _226
REMARK   94  A    between atoms: _229  and  _231
REMARK   95  A    between atoms: _231  and  _232
REMARK   96  A    between atoms: _231  and  _234
REMARK   97  A    between atoms: _234  and  _235
REMARK   98  A    between atoms: _238  and  _240
REMARK   99  A    between atoms: _240  and  _241
REMARK  100  A    between atoms: _243  and  _245
REMARK  101  A    between atoms: _245  and  _246
REMARK  102  A    between atoms: _245  and  _248
REMARK  103  A    between atoms: _248  and  _249
REMARK  104  A    between atoms: _249  and  _250
REMARK  105  A    between atoms: _250  and  _251
REMARK  106  A    between atoms: _260  and  _262
REMARK  107  A    between atoms: _262  and  _263
REMARK  108  A    between atoms: _262  and  _265
REMARK  109  A    between atoms: _265  and  _266
REMARK  110  A    between atoms: _271  and  _273
REMARK  111  A    between atoms: _273  and  _274
REMARK  112  A    between atoms: _273  and  _276
REMARK  113  A    between atoms: _276  and  _277
REMARK  114  A    between atoms: _277  and  _278
REMARK  115  A    between atoms: _278  and  _279
REMARK  116  A    between atoms: _288  and  _290
REMARK  117  A    between atoms: _290  and  _291
REMARK  118  A    between atoms: _290  and  _293
REMARK  119  A    between atoms: _293  and  _294
REMARK  120  A    between atoms: _297  and  _299
REMARK  121  A    between atoms: _299  and  _300
REMARK  122  A    between atoms: _299  and  _302
REMARK  123  A    between atoms: _302  and  _303
REMARK  124  A    between atoms: _306  and  _308
REMARK  125  A    between atoms: _308  and  _309
REMARK  126  A    between atoms: _308  and  _311
REMARK  127  A    between atoms: _311  and  _312
REMARK  128  A    between atoms: _315  and  _317
REMARK  129  A    between atoms: _317  and  _318
REMARK  130  A    between atoms: _317  and  _320
REMARK  131  A    between atoms: _320  and  _321
REMARK  132  A    between atoms: _324  and  _326
REMARK  133  A    between atoms: _326  and  _327
REMARK  134  A    between atoms: _329  and  _331
REMARK  135  A    between atoms: _331  and  _332
REMARK  136  A    between atoms: _335  and  _337
REMARK  137  A    between atoms: _337  and  _338
REMARK  138  A    between atoms: _337  and  _340
REMARK  139  A    between atoms: _340  and  _341
REMARK  140  A    between atoms: _344  and  _346
REMARK  141  A    between atoms: _346  and  _347
REMARK  142  A    between atoms: _346  and  _349
REMARK  143  A    between atoms: _349  and  _350
REMARK  144  A    between atoms: _353  and  _355
REMARK  145  A    between atoms: _355  and  _356
REMARK  146  A    between atoms: _355  and  _358
REMARK  147  A    between atoms: _358  and  _359
REMARK  148  A    between atoms: _362  and  _364
REMARK  149  A    between atoms: _364  and  _365
REMARK  150  A    between atoms: _364  and  _367
REMARK  151  A    between atoms: _370  and  _372
REMARK  152  A    between atoms: _372  and  _373
REMARK  153  A    between atoms: _372  and  _375
REMARK  154  A    between atoms: _375  and  _376
REMARK  155  A    between atoms: _376  and  _377
REMARK  156  A    between atoms: _377  and  _378
REMARK  157  A    between atoms: _378  and  _379
REMARK  158  A    between atoms: _383  and  _385
REMARK  159  A    between atoms: _385  and  _386
REMARK  160  A    between atoms: _385  and  _388
REMARK  161  A    between atoms: _388  and  _389
REMARK  162  A    between atoms: _389  and  _390
REMARK  163  A    between atoms: _392  and  _394
REMARK  164  A    between atoms: _394  and  _395
REMARK  165  A    between atoms: _394  and  _397
REMARK  166  A    between atoms: _397  and  _398
REMARK  167  A    between atoms: _401  and  _403
REMARK  168  A    between atoms: _403  and  _404
REMARK  169  A    between atoms: _406  and  _408
REMARK  170  A    between atoms: _408  and  _409
REMARK  171  A    between atoms: _411  and  _413
REMARK  172  A    between atoms: _413  and  _414
REMARK  173  A    between atoms: _413  and  _416
REMARK  174  A    between atoms: _416  and  _417
REMARK  175  A    between atoms: _420  and  _422
REMARK  176  A    between atoms: _422  and  _423
REMARK  177  A    between atoms: _425  and  _427
REMARK  178  A    between atoms: _427  and  _428
REMARK  179  A    between atoms: _430  and  _432
REMARK  180  A    between atoms: _432  and  _433
REMARK  181  A    between atoms: _432  and  _435
REMARK  182  A    between atoms: _435  and  _436
REMARK  183  A    between atoms: _442  and  _444
REMARK  184  A    between atoms: _444  and  _445
REMARK  185  A    between atoms: _444  and  _447
REMARK  186  A    between atoms: _447  and  _448
REMARK  187  A    between atoms: _451  and  _453
REMARK  188  A    between atoms: _453  and  _454
REMARK  189  A    between atoms: _453  and  _456
REMARK  190  A    between atoms: _459  and  _461
REMARK  191  A    between atoms: _461  and  _462
REMARK  192  A    between atoms: _461  and  _464
REMARK  193  A    between atoms: _464  and  _465
REMARK  194  A    between atoms: _468  and  _470
REMARK  195  A    between atoms: _470  and  _471
REMARK  196  A    between atoms: _470  and  _473
REMARK  197  A    between atoms: _473  and  _474
REMARK  198  A    between atoms: _478  and  _479
REMARK  199  A    between atoms: _484  and  _486
REMARK  200  A    between atoms: _486  and  _487
REMARK  201  A    between atoms: _486  and  _489
REMARK  202  A    between atoms: _492  and  _494
REMARK  203  A    between atoms: _494  and  _495
REMARK  204  A    between atoms: _494  and  _497
REMARK  205  A    between atoms: _497  and  _498
REMARK  206  A    between atoms: _503  and  _505
REMARK  207  A    between atoms: _505  and  _506
REMARK  208  A    between atoms: _505  and  _508
REMARK  209  A    between atoms: _508  and  _509
REMARK  210  A    between atoms: _512  and  _514
REMARK  211  A    between atoms: _514  and  _515
REMARK  212  A    between atoms: _514  and  _517
REMARK  213  A    between atoms: _517  and  _518
REMARK  214  A    between atoms: _521  and  _523
REMARK  215  A    between atoms: _523  and  _524
REMARK  216  A    between atoms: _526  and  _528
REMARK  217  A    between atoms: _528  and  _529
REMARK  218  A    between atoms: _528  and  _531
REMARK  219  A    between atoms: _531  and  _532
REMARK  220  A    between atoms: _532  and  _533
REMARK  221  A    between atoms: _533  and  _534
REMARK                            x       y       z     vdW  Elec       q    Type
REMARK                         _______ _______ _______ _____ _____    ______ ____
ROOT
ATOM      1  C   GLY A   5       4.723   4.173  16.036  0.00  0.00    +0.243 C 
ATOM      2  N   ALA A   6       3.440   4.143  16.348  0.00  0.00    -0.297 N 
ATOM      3  H   ALA A   6       3.159   4.171  17.349  0.00  0.00    +0.150 HD
ATOM      4  O   GLY A   5       5.117   4.179  14.875  0.00  0.00    -0.273 OA
ENDROOT
BRANCH   2   5
ATOM      5  CA  ALA A   6       2.398   4.070  15.308  0.00  0.00    +0.149 C 
ATOM      6  CB  ALA A   6       1.267   3.055  15.738  0.00  0.00    +0.031 C 
BRANCH   5   7
ATOM      7  C   ALA A   6       1.773   5.424  14.998  0.00  0.00    +0.241 C 
ATOM      8  O   ALA A   6       1.206   6.058  15.873  0.00  0.00    -0.273 OA
ATOM      9  N   ASP A   7       1.871   5.875  13.751  0.00  0.00    -0.297 N 
ATOM     10  H   ASP A   7       2.407   5.334  13.043  0.00  0.00    +0.150 HD
BRANCH   9  11
ATOM     11  CA  ASP A   7       1.221   7.138  13.375  0.00  0.00    +0.160 C 
BRANCH  11  12
ATOM     12  C   ASP A   7      -0.288   6.966  13.471  0.00  0.00    +0.241 C 
ATOM     13  O   ASP A   7      -0.987   7.860  13.909  0.00  0.00    -0.273 OA
ATOM     14  N   ASP A   8      -0.784   5.819  13.000  0.00  0.00    -0.297 N 
ATOM     15  H   ASP A   8      -0.126   5.099  12.638  0.00  0.00    +0.150 HD
BRANCH  14  16
ATOM     16  CA  ASP A   8      -2.221   5.539  12.976  0.00  0.00    +0.160 C 
BRANCH  16  17
ATOM     17  C   ASP A   8      -2.646   4.421  13.872  0.00  0.00    +0.241 C 
ATOM     18  O   ASP A   8      -1.828   3.676  14.383  0.00  0.00    -0.273 OA
ATOM     19  N   THR A   9      -3.958   4.293  14.001  0.00  0.00    -0.295 N 
ATOM     20  H   THR A   9      -4.566   4.964  13.489  0.00  0.00    +0.150 HD
BRANCH  19  21
ATOM     21  CA  THR A   9      -4.607   3.265  14.821  0.00  0.00    +0.176 C 
BRANCH  21  22
ATOM     22  C   THR A   9      -5.094   2.152  13.894  0.00  0.00    +0.243 C 
ATOM     23  N   VAL A  10      -4.595   0.942  14.118  0.00  0.00    -0.298 N 
ATOM     24  H   VAL A  10      -3.916   0.816  14.896  0.00  0.00    +0.150 HD
ATOM     25  O   THR A   9      -5.856   2.403  12.956  0.00  0.00    -0.273 OA
BRANCH  23  26
ATOM     26  CA  VAL A  10      -4.968  -0.228  13.305  0.00  0.00    +0.137 C 
BRANCH  26  27
ATOM     27  CB  VAL A  10      -3.747  -0.823  12.557  0.00  0.00    +0.026 C 
ATOM     28  CG2 VAL A  10      -2.974   0.261  11.817  0.00  0.00    +0.002 C 
ATOM     29  CG1 VAL A  10      -4.234  -1.857  11.577  0.00  0.00    +0.002 C 
ENDBRANCH  26  27
BRANCH  26  30
ATOM     30  C   VAL A  10      -5.613  -1.290  14.217  0.00  0.00    +0.227 C 
ATOM     31  O   VAL A  10      -5.028  -1.706  15.207  0.00  0.00    -0.286 OA
ENDBRANCH  26  30
ENDBRANCH  23  26
ENDBRANCH  21  22
BRANCH  21  32
ATOM     32  CB  THR A   9      -5.781   3.900  15.598  0.00  0.00    +0.137 C 
ATOM     33  CG2 THR A   9      -6.640   2.853  16.290  0.00  0.00    +0.034 C 
BRANCH  32  34
ATOM     34  OG1 THR A   9      -5.242   4.836  16.552  0.00  0.00    -0.382 OA
ATOM     35  HG1 THR A   9      -4.733   5.537  16.073  0.00  0.00    +0.210 HD
ENDBRANCH  32  34
ENDBRANCH  21  32
ENDBRANCH  19  21
ENDBRANCH  16  17
BRANCH  16  36
ATOM     36  CB  ASP A   8      -2.651   5.198  11.561  0.00  0.00    +0.143 C 
BRANCH  36  37
ATOM     37  CG  ASP A   8      -2.146   6.210  10.546  0.00  0.00    +0.367 C 
ATOM     38  OD2 ASP A   8      -2.471   7.414  10.681  0.00  0.00    -0.246 OA
ATOM     39  OD1 ASP A   8      -1.409   5.797   9.625  0.00  0.00    -0.246 OA
ENDBRANCH  36  37
ENDBRANCH  16  36
ENDBRANCH  14  16
ENDBRANCH  11  12
BRANCH  11  40
ATOM     40  CB  ASP A   7       1.494   7.503  11.925  0.00  0.00    +0.143 C 
BRANCH  40  41
ATOM     41  CG  ASP A   7       2.940   7.704  11.622  0.00  0.00    +0.367 C 
ATOM     42  OD2 ASP A   7       3.733   8.035  12.529  0.00  0.00    -0.246 OA
ATOM     43  OD1 ASP A   7       3.271   7.565  10.429  0.00  0.00    -0.246 OA
ENDBRANCH  40  41
ENDBRANCH  11  40
ENDBRANCH   9  11
ENDBRANCH   5   7
ENDBRANCH   2   5
BRANCH   1  44
ATOM     44  CA  GLY A   5       5.691   4.245  17.190  0.00  0.00    +0.176 C 
BRANCH  44  46
ATOM     45  C   THR A   4       4.656   5.574  18.918  0.00  0.00    +0.243 C 
ATOM     46  N   GLY A   5       4.985   4.381  18.453  0.00  0.00    -0.295 N 
ATOM     47  H   GLY A   5       4.736   3.530  18.997  0.00  0.00    +0.150 HD
ATOM     48  O   THR A   4       4.926   6.594  18.326  0.00  0.00    -0.273 OA
BRANCH  45  49
ATOM     49  CA  THR A   4       3.883   5.633  20.235  0.00  0.00    +0.176 C 
BRANCH  49  51
ATOM     50  C   ASP A   3       2.360   3.745  19.992  0.00  0.00    +0.241 C 
ATOM     51  N   THR A   4       3.365   4.325  20.638  0.00  0.00    -0.295 N 
ATOM     52  H   THR A   4       3.794   3.838  21.450  0.00  0.00    +0.150 HD
ATOM     53  O   ASP A   3       1.837   4.237  18.995  0.00  0.00    -0.273 OA
BRANCH  50  54
ATOM     54  CA  ASP A   3       1.920   2.377  20.510  0.00  0.00    +0.160 C 
BRANCH  54  57
ATOM     55  C   LEU A   2       0.711   2.031  22.585  0.00  0.00    +0.241 C 
ATOM     56  O   LEU A   2       1.736   1.711  23.182  0.00  0.00    -0.273 OA
ATOM     57  N   ASP A   3       0.712   2.439  21.334  0.00  0.00    -0.297 N 
ATOM     58  H   ASP A   3      -0.166   2.814  20.921  0.00  0.00    +0.150 HD
BRANCH  55  59
ATOM     59  CA  LEU A   2      -0.644   1.997  23.253  0.00  0.00    +0.149 C 
BRANCH  59  61
ATOM     60  C   LEU A   1      -1.392  -0.172  22.365  0.00  0.00    +0.238 C 
ATOM     61  N   LEU A   2      -0.904   0.551  23.378  0.00  0.00    -0.297 N 
ATOM     62  H   LEU A   2      -0.701   0.079  24.282  0.00  0.00    +0.150 HD
ATOM     63  O   LEU A   1      -1.770   0.335  21.297  0.00  0.00    -0.274 OA
BRANCH  60  64
ATOM     64  CA  LEU A   1      -1.556  -1.678  22.603  0.00  0.00    +0.145 C 
BRANCH  64  65
ATOM     65  N   LEU A   1      -2.896  -2.112  22.248  0.00  0.00    -0.238 NA
ATOM     66  H   LEU A   1      -3.084  -2.354  21.254  0.00  0.00    +0.142 HD
ENDBRANCH  64  65
BRANCH  64  67
ATOM     67  CB  LEU A   1      -0.570  -2.460  21.730  0.00  0.00    +0.026 C 
BRANCH  67  68
ATOM     68  CG  LEU A   1       0.929  -2.327  21.943  0.00  0.00    +0.002 C 
ATOM     69  CD2 LEU A   1       1.330  -3.053  23.232  0.00  0.00    +0.000 C 
ATOM     70  CD1 LEU A   1       1.638  -2.948  20.745  0.00  0.00    +0.000 C 
ENDBRANCH  67  68
ENDBRANCH  64  67
ENDBRANCH  60  64
ENDBRANCH  59  61
BRANCH  59  71
ATOM     71  CB  LEU A   2      -0.589   2.644  24.620  0.00  0.00    +0.029 C 
BRANCH  71  72
ATOM     72  CG  LEU A   2      -1.857   2.370  25.412  0.00  0.00    +0.002 C 
ATOM     73  CD2 LEU A   2      -1.688   3.053  26.762  0.00  0.00    +0.000 C 
ATOM     74  CD1 LEU A   2      -3.097   2.870  24.659  0.00  0.00    +0.000 C 
ENDBRANCH  71  72
ENDBRANCH  59  71
ENDBRANCH  55  59
ENDBRANCH  54  57
BRANCH  54  75
ATOM     75  CB  ASP A   3       1.561   1.422  19.350  0.00  0.00    +0.143 C 
BRANCH  75  76
ATOM     76  CG  ASP A   3       2.702   1.135  18.428  0.00  0.00    +0.367 C 
ATOM     77  OD2 ASP A   3       3.587   1.978  18.246  0.00  0.00    -0.246 OA
ATOM     78  OD1 ASP A   3       2.675   0.040  17.846  0.00  0.00    -0.246 OA
ENDBRANCH  75  76
ENDBRANCH  54  75
ENDBRANCH  50  54
ENDBRANCH  49  51
BRANCH  49  79
ATOM     79  CB  THR A   4       4.796   6.187  21.303  0.00  0.00    +0.137 C 
ATOM     80  CG2 THR A   4       3.997   6.461  22.599  0.00  0.00    +0.034 C 
BRANCH  79  81
ATOM     81  OG1 THR A   4       5.845   5.238  21.552  0.00  0.00    -0.382 OA
ATOM     82  HG1 THR A   4       6.356   5.087  20.718  0.00  0.00    +0.210 HD
ENDBRANCH  79  81
ENDBRANCH  49  79
ENDBRANCH  45  49
ENDBRANCH  44  46
ENDBRANCH   1  44
TORSDOF 35
REMARK  Name = ../refined-set-2016/1mtr/1mtr_pocket.pdb
REMARK  221 active torsions:
REMARK  status: ('A' for Active; 'I' for Inactive)
REMARK    1  A    between atoms: _1  and  _3
REMARK    2  A    between atoms: _3  and  _4
REMARK    3  A    between atoms: _3  and  _6
REMARK    4  A    between atoms: _6  and  _7
REMARK    5  A    between atoms: _7  and  _8
REMARK    6  A    between atoms: _8  and  _9
REMARK    7  A    between atoms: _18  and  _20
REMARK    8  A    between atoms: _20  and  _21
REMARK    9  A    between atoms: _20  and  _23
REMARK   10  A    between atoms: _23  and  _24
REMARK   11  A    between atoms: _27  and  _29
REMARK   12  A    between atoms: _29  and  _30
REMARK   13  A    between atoms: _29  and  _32
REMARK   14  A    between atoms: _32  and  _33
REMARK   15  A    between atoms: _36  and  _38
REMARK   16  A    between atoms: _38  and  _39
REMARK   17  A    between atoms: _38  and  _41
REMARK   18  A    between atoms: _41  and  _42
REMARK   19  A    between atoms: _45  and  _47
REMARK   20  A    between atoms: _47  and  _48
REMARK   21  A    between atoms: _47  and  _50
REMARK   22  A    between atoms: _50  and  _51
REMARK   23  A    between atoms: _54  and  _56
REMARK   24  A    between atoms: _56  and  _57
REMARK   25  A    between atoms: _59  and  _61
REMARK   26  A    between atoms: _61  and  _62
REMARK   27  A    between atoms: _65  and  _67
REMARK   28  A    between atoms: _67  and  _68
REMARK   29  A    between atoms: _67  and  _70
REMARK   30  A    between atoms: _70  and  _71
REMARK   31  A    between atoms: _74  and  _76
REMARK   32  A    between atoms: _76  and  _77
REMARK   33  A    between atoms: _76  and  _79
REMARK   34  A    between atoms: _79  and  _80
REMARK   35  A    between atoms: _83  and  _85
REMARK   36  A    between atoms: _85  and  _86
REMARK   37  A    between atoms: _85  and  _88
REMARK   38  A    between atoms: _88  and  _89
REMARK   39  A    between atoms: _92  and  _94
REMARK   40  A    between atoms: _94  and  _95
REMARK   41  A    between atoms: _94  and  _97
REMARK   42  A    between atoms: _100  and  _102
REMARK   43  A    between atoms: _102  and  _103
REMARK   44  A    between atoms: _102  and  _105
REMARK   45  A    between atoms: _105  and  _106
REMARK   46  A    between atoms: _106  and  _107
REMARK   47  A    between atoms: _109  and  _111
REMARK   48  A    between atoms: _111  and  _112
REMARK   49  A    between atoms: _111  and  _114
REMARK   50  A    between atoms: _114  and  _115
REMARK   51  A    between atoms: _118  and  _120
REMARK   52  A    between atoms: _120  and  _121
REMARK   53  A    between atoms: _123  and  _125
REMARK   54  A    between atoms: _125  and  _126
REMARK   55  A    between atoms: _128  and  _130
REMARK   56  A    between atoms: _130  and  _131
REMARK   57  A    between atoms: _130  and  _133
REMARK   58  A    between atoms: _133  and  _134
REMARK   59  A    between atoms: _137  and  _139
REMARK   60  A    between atoms: _139  and  _140
REMARK   61  A    between atoms: _142  and  _144
REMARK   62  A    between atoms: _144  and  _145
REMARK   63  A    between atoms: _147  and  _149
REMARK   64  A    between atoms: _149  and  _150
REMARK   65  A    between atoms: _149  and  _152
REMARK   66  A    between atoms: _152  and  _153
REMARK   67  A    between atoms: _159  and  _161
REMARK   68  A    between atoms: _161  and  _162
REMARK   69  A    between atoms: _161  and  _164
REMARK   70  A    between atoms: _164  and  _165
REMARK   71  A    between atoms: _168  and  _170
REMARK   72  A    between atoms: _170  and  _171
REMARK   73  A    between atoms: _170  and  _173
REMARK   74  A    between atoms: _176  and  _178
REMARK   75  A    between atoms: _178  and  _179
REMARK   76  A    between atoms: _178  and  _181
REMARK   77  A    between atoms: _181  and  _182
REMARK   78  A    between atoms: _185  and  _187
REMARK   79  A    between atoms: _187  and  _188
REMARK   80  A    between atoms: _187  and  _190
REMARK   81  A    between atoms: _190  and  _191
REMARK   82  A    between atoms: _195  and  _196
REMARK   83  A    between atoms: _201  and  _203
REMARK   84  A    between atoms: _203  and  _204
REMARK   85  A    between atoms: _203  and  _206
REMARK   86  A    between atoms: _209  and  _211
REMARK   87  A    between atoms: _211  and  _212
REMARK   88  A    between atoms: _211  and  _214
REMARK   89  A    between atoms: _214  and  _215
REMARK   90  A    between atoms: _220  and  _222
REMARK   91  A    between atoms: _222  and  _223
REMARK   92  A    between atoms: _222  and  _225
REMARK   93  A    between atoms: _225  and  _226
REMARK   94  A    between atoms: _229  and  _231
REMARK   95  A    between atoms: _231  and  _232
REMARK   96  A    between atoms: _231  and  _234
REMARK   97  A    between atoms: _234  and  _235
REMARK   98  A    between atoms: _238  and  _240
REMARK   99  A    between atoms: _240  and  _241
REMARK  100  A    between atoms: _243  and  _245
REMARK  101  A    between atoms: _245  and  _246
REMARK  102  A    between atoms: _245  and  _248
REMARK  103  A    between atoms: _248  and  _249
REMARK  104  A    between atoms: _249  and  _250
REMARK  105  A    between atoms: _250  and  _251
REMARK  106  A    between atoms: _260  and  _262
REMARK  107  A    between atoms: _262  and  _263
REMARK  108  A    between atoms: _262  and  _265
REMARK  109  A    between atoms: _265  and  _266
REMARK  110  A    between atoms: _271  and  _273
REMARK  111  A    between atoms: _273  and  _274
REMARK  112  A    between atoms: _273  and  _276
REMARK  113  A    between atoms: _276  and  _277
REMARK  114  A    between atoms: _277  and  _278
REMARK  115  A    between atoms: _278  and  _279
REMARK  116  A    between atoms: _288  and  _290
REMARK  117  A    between atoms: _290  and  _291
REMARK  118  A    between atoms: _290  and  _293
REMARK  119  A    between atoms: _293  and  _294
REMARK  120  A    between atoms: _297  and  _299
REMARK  121  A    between atoms: _299  and  _300
REMARK  122  A    between atoms: _299  and  _302
REMARK  123  A    between atoms: _302  and  _303
REMARK  124  A    between atoms: _306  and  _308
REMARK  125  A    between atoms: _308  and  _309
REMARK  126  A    between atoms: _308  and  _311
REMARK  127  A    between atoms: _311  and  _312
REMARK  128  A    between atoms: _315  and  _317
REMARK  129  A    between atoms: _317  and  _318
REMARK  130  A    between atoms: _317  and  _320
REMARK  131  A    between atoms: _320  and  _321
REMARK  132  A    between atoms: _324  and  _326
REMARK  133  A    between atoms: _326  and  _327
REMARK  134  A    between atoms: _329  and  _331
REMARK  135  A    between atoms: _331  and  _332
REMARK  136  A    between atoms: _335  and  _337
REMARK  137  A    between atoms: _337  and  _338
REMARK  138  A    between atoms: _337  and  _340
REMARK  139  A    between atoms: _340  and  _341
REMARK  140  A    between atoms: _344  and  _346
REMARK  141  A    between atoms: _346  and  _347
REMARK  142  A    between atoms: _346  and  _349
REMARK  143  A    between atoms: _349  and  _350
REMARK  144  A    between atoms: _353  and  _355
REMARK  145  A    between atoms: _355  and  _356
REMARK  146  A    between atoms: _355  and  _358
REMARK  147  A    between atoms: _358  and  _359
REMARK  148  A    between atoms: _362  and  _364
REMARK  149  A    between atoms: _364  and  _365
REMARK  150  A    between atoms: _364  and  _367
REMARK  151  A    between atoms: _370  and  _372
REMARK  152  A    between atoms: _372  and  _373
REMARK  153  A    between atoms: _372  and  _375
REMARK  154  A    between atoms: _375  and  _376
REMARK  155  A    between atoms: _376  and  _377
REMARK  156  A    between atoms: _377  and  _378
REMARK  157  A    between atoms: _378  and  _379
REMARK  158  A    between atoms: _383  and  _385
REMARK  159  A    between atoms: _385  and  _386
REMARK  160  A    between atoms: _385  and  _388
REMARK  161  A    between atoms: _388  and  _389
REMARK  162  A    between atoms: _389  and  _390
REMARK  163  A    between atoms: _392  and  _394
REMARK  164  A    between atoms: _394  and  _395
REMARK  165  A    between atoms: _394  and  _397
REMARK  166  A    between atoms: _397  and  _398
REMARK  167  A    between atoms: _401  and  _403
REMARK  168  A    between atoms: _403  and  _404
REMARK  169  A    between atoms: _406  and  _408
REMARK  170  A    between atoms: _408  and  _409
REMARK  171  A    between atoms: _411  and  _413
REMARK  172  A    between atoms: _413  and  _414
REMARK  173  A    between atoms: _413  and  _416
REMARK  174  A    between atoms: _416  and  _417
REMARK  175  A    between atoms: _420  and  _422
REMARK  176  A    between atoms: _422  and  _423
REMARK  177  A    between atoms: _425  and  _427
REMARK  178  A    between atoms: _427  and  _428
REMARK  179  A    between atoms: _430  and  _432
REMARK  180  A    between atoms: _432  and  _433
REMARK  181  A    between atoms: _432  and  _435
REMARK  182  A    between atoms: _435  and  _436
REMARK  183  A    between atoms: _442  and  _444
REMARK  184  A    between atoms: _444  and  _445
REMARK  185  A    between atoms: _444  and  _447
REMARK  186  A    between atoms: _447  and  _448
REMARK  187  A    between atoms: _451  and  _453
REMARK  188  A    between atoms: _453  and  _454
REMARK  189  A    between atoms: _453  and  _456
REMARK  190  A    between atoms: _459  and  _461
REMARK  191  A    between atoms: _461  and  _462
REMARK  192  A    between atoms: _461  and  _464
REMARK  193  A    between atoms: _464  and  _465
REMARK  194  A    between atoms: _468  and  _470
REMARK  195  A    between atoms: _470  and  _471
REMARK  196  A    between atoms: _470  and  _473
REMARK  197  A    between atoms: _473  and  _474
REMARK  198  A    between atoms: _478  and  _479
REMARK  199  A    between atoms: _484  and  _486
REMARK  200  A    between atoms: _486  and  _487
REMARK  201  A    between atoms: _486  and  _489
REMARK  202  A    between atoms: _492  and  _494
REMARK  203  A    between atoms: _494  and  _495
REMARK  204  A    between atoms: _494  and  _497
REMARK  205  A    between atoms: _497  and  _498
REMARK  206  A    between atoms: _503  and  _505
REMARK  207  A    between atoms: _505  and  _506
REMARK  208  A    between atoms: _505  and  _508
REMARK  209  A    between atoms: _508  and  _509
REMARK  210  A    between atoms: _512  and  _514
REMARK  211  A    between atoms: _514  and  _515
REMARK  212  A    between atoms: _514  and  _517
REMARK  213  A    between atoms: _517  and  _518
REMARK  214  A    between atoms: _521  and  _523
REMARK  215  A    between atoms: _523  and  _524
REMARK  216  A    between atoms: _526  and  _528
REMARK  217  A    between atoms: _528  and  _529
REMARK  218  A    between atoms: _528  and  _531
REMARK  219  A    between atoms: _531  and  _532
REMARK  220  A    between atoms: _532  and  _533
REMARK  221  A    between atoms: _533  and  _534
REMARK                            x       y       z     vdW  Elec       q    Type
REMARK                         _______ _______ _______ _____ _____    ______ ____
ROOT
ATOM      1  CA  ILE A   5       8.285  -3.221   9.611  0.00  0.00    +0.149 C 
ENDROOT
BRANCH   1   3
ATOM      2  C   GLY A   4       6.435  -1.856   8.674  0.00  0.00    +0.243 C 
ATOM      3  N   ILE A   5       7.030  -2.444   9.719  0.00  0.00    -0.297 N 
ATOM      4  H   ILE A   5       6.587  -2.350  10.655  0.00  0.00    +0.150 HD
ATOM      5  O   GLY A   4       6.842  -1.953   7.509  0.00  0.00    -0.273 OA
BRANCH   2   6
ATOM      6  CA  GLY A   4       5.172  -1.076   8.953  0.00  0.00    +0.176 C 
BRANCH   6   9
ATOM      7  C   GLY A   3       3.913  -0.006   7.208  0.00  0.00    +0.243 C 
ATOM      8  O   GLY A   3       3.874   1.055   7.830  0.00  0.00    -0.273 OA
ATOM      9  N   GLY A   4       4.471  -1.103   7.688  0.00  0.00    -0.295 N 
ATOM     10  H   GLY A   4       4.406  -1.992   7.153  0.00  0.00    +0.150 HD
BRANCH   7  11
ATOM     11  CA  GLY A   3       3.235  -0.141   5.863  0.00  0.00    +0.176 C 
BRANCH  11  13
ATOM     12  C   ILE A   2       0.961   0.328   5.301  0.00  0.00    +0.241 C 
ATOM     13  N   GLY A   3       2.128   0.782   5.715  0.00  0.00    -0.295 N 
ATOM     14  H   GLY A   3       2.252   1.791   5.933  0.00  0.00    +0.150 HD
ATOM     15  O   ILE A   2       0.769  -0.855   5.036  0.00  0.00    -0.273 OA
BRANCH  12  16
ATOM     16  CA  ILE A   2      -0.166   1.333   5.189  0.00  0.00    +0.148 C 
BRANCH  16  18
ATOM     17  C   MET A   1      -1.585   1.571   3.213  0.00  0.00    +0.238 C 
ATOM     18  N   ILE A   2      -1.121   0.818   4.202  0.00  0.00    -0.297 N 
ATOM     19  H   ILE A   2      -1.444  -0.167   4.280  0.00  0.00    +0.150 HD
ATOM     20  O   MET A   1      -1.229   2.726   3.031  0.00  0.00    -0.274 OA
BRANCH  17  21
ATOM     21  CA  MET A   1      -2.573   0.912   2.277  0.00  0.00    +0.146 C 
BRANCH  21  22
ATOM     22  N   MET A   1      -3.755   1.775   2.088  0.00  0.00    -0.238 NA
ATOM     23  H   MET A   1      -3.618   2.766   1.803  0.00  0.00    +0.142 HD
ENDBRANCH  21  22
BRANCH  21  24
ATOM     24  CB  MET A   1      -1.867   0.611   0.963  0.00  0.00    +0.038 C 
BRANCH  24  25
ATOM     25  CG  MET A   1      -2.480  -0.521   0.182  0.00  0.00    +0.060 C 
BRANCH  25  26
ATOM     26  SD  MET A   1      -1.345  -0.993  -1.118  0.00  0.00    -0.139 S 
ATOM     27  CE  MET A   1      -0.070  -1.745  -0.161  0.00  0.00    +0.069 C 
ENDBRANCH  25  26
ENDBRANCH  24  25
ENDBRANCH  21  24
ENDBRANCH  17  21
ENDBRANCH  16  18
BRANCH  16  28
ATOM     28  CB  ILE A   2      -0.840   1.492   6.592  0.00  0.00    +0.027 C 
ATOM     29  CG2 ILE A   2      -2.053   2.421   6.516  0.00  0.00    +0.002 C 
BRANCH  28  30
ATOM     30  CG1 ILE A   2      -1.322   0.131   7.101  0.00  0.00    +0.002 C 
ATOM     31  CD1 ILE A   2      -1.956   0.197   8.462  0.00  0.00    +0.000 C 
ENDBRANCH  28  30
ENDBRANCH  16  28
ENDBRANCH  12  16
ENDBRANCH  11  13
ENDBRANCH   7  11
ENDBRANCH   6   9
ENDBRANCH   2   6
ENDBRANCH   1   3
BRANCH   1  32
ATOM     32  C   ILE A   5       8.418  -4.259   8.497  0.00  0.00    +0.241 C 
ATOM     33  N   GLY A   6       7.459  -5.179   8.456  0.00  0.00    -0.295 N 
ATOM     34  H   GLY A   6       6.673  -5.126   9.134  0.00  0.00    +0.150 HD
ATOM     35  O   ILE A   5       9.389  -4.245   7.723  0.00  0.00    -0.273 OA
BRANCH  33  36
ATOM     36  CA  GLY A   6       7.488  -6.257   7.482  0.00  0.00    +0.176 C 
BRANCH  36  37
ATOM     37  C   GLY A   6       6.803  -5.985   6.165  0.00  0.00    +0.243 C 
ATOM     38  N   GLY A   7       6.356  -4.759   5.939  0.00  0.00    -0.295 N 
ATOM     39  H   GLY A   7       6.479  -4.017   6.658  0.00  0.00    +0.150 HD
ATOM     40  O   GLY A   6       6.650  -6.899   5.346  0.00  0.00    -0.273 OA
BRANCH  38  41
ATOM     41  CA  GLY A   7       5.696  -4.457   4.687  0.00  0.00    +0.176 C 
BRANCH  41  42
ATOM     42  C   GLY A   7       4.375  -3.744   4.743  0.00  0.00    +0.243 C 
ATOM     43  O   GLY A   7       3.969  -3.286   5.797  0.00  0.00    -0.273 OA
ATOM     44  N   PHE A   8       3.749  -3.606   3.570  0.00  0.00    -0.297 N 
ATOM     45  H   PHE A   8       4.217  -3.993   2.726  0.00  0.00    +0.150 HD
BRANCH  44  46
ATOM     46  CA  PHE A   8       2.448  -2.948   3.386  0.00  0.00    +0.153 C 
BRANCH  46  47
ATOM     47  C   PHE A   8       1.303  -3.925   3.428  0.00  0.00    +0.241 C 
ATOM     48  N   ILE A   9       0.208  -3.510   4.054  0.00  0.00    -0.298 N 
ATOM     49  H   ILE A   9       0.209  -2.578   4.516  0.00  0.00    +0.150 HD
ATOM     50  O   PHE A   8       1.392  -5.023   2.879  0.00  0.00    -0.273 OA
BRANCH  48  51
ATOM     51  CA  ILE A   9      -1.001  -4.334   4.109  0.00  0.00    +0.137 C 
BRANCH  51  52
ATOM     52  CB  ILE A   9      -1.356  -4.795   5.584  0.00  0.00    +0.026 C 
ATOM     53  CG2 ILE A   9      -0.360  -5.820   6.080  0.00  0.00    +0.002 C 
BRANCH  52  54
ATOM     54  CG1 ILE A   9      -1.346  -3.615   6.554  0.00  0.00    +0.002 C 
ATOM     55  CD1 ILE A   9      -2.154  -3.861   7.842  0.00  0.00    +0.000 C 
ENDBRANCH  52  54
ENDBRANCH  51  52
BRANCH  51  56
ATOM     56  C   ILE A   9      -2.122  -3.440   3.571  0.00  0.00    +0.227 C 
ATOM     57  O   ILE A   9      -1.972  -2.229   3.497  0.00  0.00    -0.286 OA
ENDBRANCH  51  56
ENDBRANCH  48  51
ENDBRANCH  46  47
BRANCH  46  58
ATOM     58  CB  PHE A   8       2.398  -2.242   2.022  0.00  0.00    +0.055 C 
BRANCH  58  59
ATOM     59  CG  PHE A   8       3.207  -0.996   1.971  0.00  0.00    -0.020 A 
ATOM     60  CD2 PHE A   8       2.596   0.243   2.119  0.00  0.00    -0.004 A 
ATOM     61  CE2 PHE A   8       3.354   1.397   2.205  0.00  0.00    -0.000 A 
ATOM     62  CZ  PHE A   8       4.747   1.319   2.150  0.00  0.00    -0.000 A 
ATOM     63  CE1 PHE A   8       5.372   0.085   1.994  0.00  0.00    -0.000 A 
ATOM     64  CD1 PHE A   8       4.601  -1.065   1.906  0.00  0.00    -0.004 A 
ENDBRANCH  58  59
ENDBRANCH  46  58
ENDBRANCH  44  46
ENDBRANCH  41  42
ENDBRANCH  38  41
ENDBRANCH  36  37
ENDBRANCH  33  36
ENDBRANCH   1  32
BRANCH   1  65
ATOM     65  CB  ILE A   5       8.621  -3.923  10.981  0.00  0.00    +0.027 C 
ATOM     66  CG2 ILE A   5       9.748  -4.965  10.828  0.00  0.00    +0.002 C 
BRANCH  65  67
ATOM     67  CG1 ILE A   5       9.047  -2.875  11.988  0.00  0.00    +0.002 C 
ATOM     68  CD1 ILE A   5      10.428  -2.360  11.747  0.00  0.00    +0.000 C 
ENDBRANCH  65  67
ENDBRANCH   1  65
TORSDOF 29
REMARK  Name = ../refined-set-2016/1mtr/1mtr_pocket.pdb
REMARK  221 active torsions:
REMARK  status: ('A' for Active; 'I' for Inactive)
REMARK    1  A    between atoms: _1  and  _3
REMARK    2  A    between atoms: _3  and  _4
REMARK    3  A    between atoms: _3  and  _6
REMARK    4  A    between atoms: _6  and  _7
REMARK    5  A    between atoms: _7  and  _8
REMARK    6  A    between atoms: _8  and  _9
REMARK    7  A    between atoms: _18  and  _20
REMARK    8  A    between atoms: _20  and  _21
REMARK    9  A    between atoms: _20  and  _23
REMARK   10  A    between atoms: _23  and  _24
REMARK   11  A    between atoms: _27  and  _29
REMARK   12  A    between atoms: _29  and  _30
REMARK   13  A    between atoms: _29  and  _32
REMARK   14  A    between atoms: _32  and  _33
REMARK   15  A    between atoms: _36  and  _38
REMARK   16  A    between atoms: _38  and  _39
REMARK   17  A    between atoms: _38  and  _41
REMARK   18  A    between atoms: _41  and  _42
REMARK   19  A    between atoms: _45  and  _47
REMARK   20  A    between atoms: _47  and  _48
REMARK   21  A    between atoms: _47  and  _50
REMARK   22  A    between atoms: _50  and  _51
REMARK   23  A    between atoms: _54  and  _56
REMARK   24  A    between atoms: _56  and  _57
REMARK   25  A    between atoms: _59  and  _61
REMARK   26  A    between atoms: _61  and  _62
REMARK   27  A    between atoms: _65  and  _67
REMARK   28  A    between atoms: _67  and  _68
REMARK   29  A    between atoms: _67  and  _70
REMARK   30  A    between atoms: _70  and  _71
REMARK   31  A    between atoms: _74  and  _76
REMARK   32  A    between atoms: _76  and  _77
REMARK   33  A    between atoms: _76  and  _79
REMARK   34  A    between atoms: _79  and  _80
REMARK   35  A    between atoms: _83  and  _85
REMARK   36  A    between atoms: _85  and  _86
REMARK   37  A    between atoms: _85  and  _88
REMARK   38  A    between atoms: _88  and  _89
REMARK   39  A    between atoms: _92  and  _94
REMARK   40  A    between atoms: _94  and  _95
REMARK   41  A    between atoms: _94  and  _97
REMARK   42  A    between atoms: _100  and  _102
REMARK   43  A    between atoms: _102  and  _103
REMARK   44  A    between atoms: _102  and  _105
REMARK   45  A    between atoms: _105  and  _106
REMARK   46  A    between atoms: _106  and  _107
REMARK   47  A    between atoms: _109  and  _111
REMARK   48  A    between atoms: _111  and  _112
REMARK   49  A    between atoms: _111  and  _114
REMARK   50  A    between atoms: _114  and  _115
REMARK   51  A    between atoms: _118  and  _120
REMARK   52  A    between atoms: _120  and  _121
REMARK   53  A    between atoms: _123  and  _125
REMARK   54  A    between atoms: _125  and  _126
REMARK   55  A    between atoms: _128  and  _130
REMARK   56  A    between atoms: _130  and  _131
REMARK   57  A    between atoms: _130  and  _133
REMARK   58  A    between atoms: _133  and  _134
REMARK   59  A    between atoms: _137  and  _139
REMARK   60  A    between atoms: _139  and  _140
REMARK   61  A    between atoms: _142  and  _144
REMARK   62  A    between atoms: _144  and  _145
REMARK   63  A    between atoms: _147  and  _149
REMARK   64  A    between atoms: _149  and  _150
REMARK   65  A    between atoms: _149  and  _152
REMARK   66  A    between atoms: _152  and  _153
REMARK   67  A    between atoms: _159  and  _161
REMARK   68  A    between atoms: _161  and  _162
REMARK   69  A    between atoms: _161  and  _164
REMARK   70  A    between atoms: _164  and  _165
REMARK   71  A    between atoms: _168  and  _170
REMARK   72  A    between atoms: _170  and  _171
REMARK   73  A    between atoms: _170  and  _173
REMARK   74  A    between atoms: _176  and  _178
REMARK   75  A    between atoms: _178  and  _179
REMARK   76  A    between atoms: _178  and  _181
REMARK   77  A    between atoms: _181  and  _182
REMARK   78  A    between atoms: _185  and  _187
REMARK   79  A    between atoms: _187  and  _188
REMARK   80  A    between atoms: _187  and  _190
REMARK   81  A    between atoms: _190  and  _191
REMARK   82  A    between atoms: _195  and  _196
REMARK   83  A    between atoms: _201  and  _203
REMARK   84  A    between atoms: _203  and  _204
REMARK   85  A    between atoms: _203  and  _206
REMARK   86  A    between atoms: _209  and  _211
REMARK   87  A    between atoms: _211  and  _212
REMARK   88  A    between atoms: _211  and  _214
REMARK   89  A    between atoms: _214  and  _215
REMARK   90  A    between atoms: _220  and  _222
REMARK   91  A    between atoms: _222  and  _223
REMARK   92  A    between atoms: _222  and  _225
REMARK   93  A    between atoms: _225  and  _226
REMARK   94  A    between atoms: _229  and  _231
REMARK   95  A    between atoms: _231  and  _232
REMARK   96  A    between atoms: _231  and  _234
REMARK   97  A    between atoms: _234  and  _235
REMARK   98  A    between atoms: _238  and  _240
REMARK   99  A    between atoms: _240  and  _241
REMARK  100  A    between atoms: _243  and  _245
REMARK  101  A    between atoms: _245  and  _246
REMARK  102  A    between atoms: _245  and  _248
REMARK  103  A    between atoms: _248  and  _249
REMARK  104  A    between atoms: _249  and  _250
REMARK  105  A    between atoms: _250  and  _251
REMARK  106  A    between atoms: _260  and  _262
REMARK  107  A    between atoms: _262  and  _263
REMARK  108  A    between atoms: _262  and  _265
REMARK  109  A    between atoms: _265  and  _266
REMARK  110  A    between atoms: _271  and  _273
REMARK  111  A    between atoms: _273  and  _274
REMARK  112  A    between atoms: _273  and  _276
REMARK  113  A    between atoms: _276  and  _277
REMARK  114  A    between atoms: _277  and  _278
REMARK  115  A    between atoms: _278  and  _279
REMARK  116  A    between atoms: _288  and  _290
REMARK  117  A    between atoms: _290  and  _291
REMARK  118  A    between atoms: _290  and  _293
REMARK  119  A    between atoms: _293  and  _294
REMARK  120  A    between atoms: _297  and  _299
REMARK  121  A    between atoms: _299  and  _300
REMARK  122  A    between atoms: _299  and  _302
REMARK  123  A    between atoms: _302  and  _303
REMARK  124  A    between atoms: _306  and  _308
REMARK  125  A    between atoms: _308  and  _309
REMARK  126  A    between atoms: _308  and  _311
REMARK  127  A    between atoms: _311  and  _312
REMARK  128  A    between atoms: _315  and  _317
REMARK  129  A    between atoms: _317  and  _318
REMARK  130  A    between atoms: _317  and  _320
REMARK  131  A    between atoms: _320  and  _321
REMARK  132  A    between atoms: _324  and  _326
REMARK  133  A    between atoms: _326  and  _327
REMARK  134  A    between atoms: _329  and  _331
REMARK  135  A    between atoms: _331  and  _332
REMARK  136  A    between atoms: _335  and  _337
REMARK  137  A    between atoms: _337  and  _338
REMARK  138  A    between atoms: _337  and  _340
REMARK  139  A    between atoms: _340  and  _341
REMARK  140  A    between atoms: _344  and  _346
REMARK  141  A    between atoms: _346  and  _347
REMARK  142  A    between atoms: _346  and  _349
REMARK  143  A    between atoms: _349  and  _350
REMARK  144  A    between atoms: _353  and  _355
REMARK  145  A    between atoms: _355  and  _356
REMARK  146  A    between atoms: _355  and  _358
REMARK  147  A    between atoms: _358  and  _359
REMARK  148  A    between atoms: _362  and  _364
REMARK  149  A    between atoms: _364  and  _365
REMARK  150  A    between atoms: _364  and  _367
REMARK  151  A    between atoms: _370  and  _372
REMARK  152  A    between atoms: _372  and  _373
REMARK  153  A    between atoms: _372  and  _375
REMARK  154  A    between atoms: _375  and  _376
REMARK  155  A    between atoms: _376  and  _377
REMARK  156  A    between atoms: _377  and  _378
REMARK  157  A    between atoms: _378  and  _379
REMARK  158  A    between atoms: _383  and  _385
REMARK  159  A    between atoms: _385  and  _386
REMARK  160  A    between atoms: _385  and  _388
REMARK  161  A    between atoms: _388  and  _389
REMARK  162  A    between atoms: _389  and  _390
REMARK  163  A    between atoms: _392  and  _394
REMARK  164  A    between atoms: _394  and  _395
REMARK  165  A    between atoms: _394  and  _397
REMARK  166  A    between atoms: _397  and  _398
REMARK  167  A    between atoms: _401  and  _403
REMARK  168  A    between atoms: _403  and  _404
REMARK  169  A    between atoms: _406  and  _408
REMARK  170  A    between atoms: _408  and  _409
REMARK  171  A    between atoms: _411  and  _413
REMARK  172  A    between atoms: _413  and  _414
REMARK  173  A    between atoms: _413  and  _416
REMARK  174  A    between atoms: _416  and  _417
REMARK  175  A    between atoms: _420  and  _422
REMARK  176  A    between atoms: _422  and  _423
REMARK  177  A    between atoms: _425  and  _427
REMARK  178  A    between atoms: _427  and  _428
REMARK  179  A    between atoms: _430  and  _432
REMARK  180  A    between atoms: _432  and  _433
REMARK  181  A    between atoms: _432  and  _435
REMARK  182  A    between atoms: _435  and  _436
REMARK  183  A    between atoms: _442  and  _444
REMARK  184  A    between atoms: _444  and  _445
REMARK  185  A    between atoms: _444  and  _447
REMARK  186  A    between atoms: _447  and  _448
REMARK  187  A    between atoms: _451  and  _453
REMARK  188  A    between atoms: _453  and  _454
REMARK  189  A    between atoms: _453  and  _456
REMARK  190  A    between atoms: _459  and  _461
REMARK  191  A    between atoms: _461  and  _462
REMARK  192  A    between atoms: _461  and  _464
REMARK  193  A    between atoms: _464  and  _465
REMARK  194  A    between atoms: _468  and  _470
REMARK  195  A    between atoms: _470  and  _471
REMARK  196  A    between atoms: _470  and  _473
REMARK  197  A    between atoms: _473  and  _474
REMARK  198  A    between atoms: _478  and  _479
REMARK  199  A    between atoms: _484  and  _486
REMARK  200  A    between atoms: _486  and  _487
REMARK  201  A    between atoms: _486  and  _489
REMARK  202  A    between atoms: _492  and  _494
REMARK  203  A    between atoms: _494  and  _495
REMARK  204  A    between atoms: _494  and  _497
REMARK  205  A    between atoms: _497  and  _498
REMARK  206  A    between atoms: _503  and  _505
REMARK  207  A    between atoms: _505  and  _506
REMARK  208  A    between atoms: _505  and  _508
REMARK  209  A    between atoms: _508  and  _509
REMARK  210  A    between atoms: _512  and  _514
REMARK  211  A    between atoms: _514  and  _515
REMARK  212  A    between atoms: _514  and  _517
REMARK  213  A    between atoms: _517  and  _518
REMARK  214  A    between atoms: _521  and  _523
REMARK  215  A    between atoms: _523  and  _524
REMARK  216  A    between atoms: _526  and  _528
REMARK  217  A    between atoms: _528  and  _529
REMARK  218  A    between atoms: _528  and  _531
REMARK  219  A    between atoms: _531  and  _532
REMARK  220  A    between atoms: _532  and  _533
REMARK  221  A    between atoms: _533  and  _534
REMARK                            x       y       z     vdW  Elec       q    Type
REMARK                         _______ _______ _______ _____ _____    ______ ____
ROOT
ATOM      1  CA  VAL A   1      -6.832  -1.762   5.319  0.00  0.00    +0.133 C 
ENDROOT
BRANCH   1   2
ATOM      2  CB  VAL A   1      -6.157  -0.902   6.445  0.00  0.00    +0.023 C 
ATOM      3  CG2 VAL A   1      -5.006  -1.671   7.073  0.00  0.00    +0.002 C 
ATOM      4  CG1 VAL A   1      -5.673   0.466   5.899  0.00  0.00    +0.002 C 
ENDBRANCH   1   2
BRANCH   1   5
ATOM      5  N   VAL A   1      -5.927  -2.003   4.182  0.00  0.00    -0.239 NA
ATOM      6  H   VAL A   1      -5.732  -1.224   3.522  0.00  0.00    +0.142 HD
ENDBRANCH   1   5
BRANCH   1   7
ATOM      7  C   VAL A   1      -8.076  -1.028   4.863  0.00  0.00    +0.224 C 
ATOM      8  O   VAL A   1      -8.115  -0.495   3.757  0.00  0.00    -0.287 OA
ENDBRANCH   1   7
TORSDOF 3
REMARK  Name = ../refined-set-2016/1mtr/1mtr_pocket.pdb
REMARK  221 active torsions:
REMARK  status: ('A' for Active; 'I' for Inactive)
REMARK    1  A    between atoms: _1  and  _3
REMARK    2  A    between atoms: _3  and  _4
REMARK    3  A    between atoms: _3  and  _6
REMARK    4  A    between atoms: _6  and  _7
REMARK    5  A    between atoms: _7  and  _8
REMARK    6  A    between atoms: _8  and  _9
REMARK    7  A    between atoms: _18  and  _20
REMARK    8  A    between atoms: _20  and  _21
REMARK    9  A    between atoms: _20  and  _23
REMARK   10  A    between atoms: _23  and  _24
REMARK   11  A    between atoms: _27  and  _29
REMARK   12  A    between atoms: _29  and  _30
REMARK   13  A    between atoms: _29  and  _32
REMARK   14  A    between atoms: _32  and  _33
REMARK   15  A    between atoms: _36  and  _38
REMARK   16  A    between atoms: _38  and  _39
REMARK   17  A    between atoms: _38  and  _41
REMARK   18  A    between atoms: _41  and  _42
REMARK   19  A    between atoms: _45  and  _47
REMARK   20  A    between atoms: _47  and  _48
REMARK   21  A    between atoms: _47  and  _50
REMARK   22  A    between atoms: _50  and  _51
REMARK   23  A    between atoms: _54  and  _56
REMARK   24  A    between atoms: _56  and  _57
REMARK   25  A    between atoms: _59  and  _61
REMARK   26  A    between atoms: _61  and  _62
REMARK   27  A    between atoms: _65  and  _67
REMARK   28  A    between atoms: _67  and  _68
REMARK   29  A    between atoms: _67  and  _70
REMARK   30  A    between atoms: _70  and  _71
REMARK   31  A    between atoms: _74  and  _76
REMARK   32  A    between atoms: _76  and  _77
REMARK   33  A    between atoms: _76  and  _79
REMARK   34  A    between atoms: _79  and  _80
REMARK   35  A    between atoms: _83  and  _85
REMARK   36  A    between atoms: _85  and  _86
REMARK   37  A    between atoms: _85  and  _88
REMARK   38  A    between atoms: _88  and  _89
REMARK   39  A    between atoms: _92  and  _94
REMARK   40  A    between atoms: _94  and  _95
REMARK   41  A    between atoms: _94  and  _97
REMARK   42  A    between atoms: _100  and  _102
REMARK   43  A    between atoms: _102  and  _103
REMARK   44  A    between atoms: _102  and  _105
REMARK   45  A    between atoms: _105  and  _106
REMARK   46  A    between atoms: _106  and  _107
REMARK   47  A    between atoms: _109  and  _111
REMARK   48  A    between atoms: _111  and  _112
REMARK   49  A    between atoms: _111  and  _114
REMARK   50  A    between atoms: _114  and  _115
REMARK   51  A    between atoms: _118  and  _120
REMARK   52  A    between atoms: _120  and  _121
REMARK   53  A    between atoms: _123  and  _125
REMARK   54  A    between atoms: _125  and  _126
REMARK   55  A    between atoms: _128  and  _130
REMARK   56  A    between atoms: _130  and  _131
REMARK   57  A    between atoms: _130  and  _133
REMARK   58  A    between atoms: _133  and  _134
REMARK   59  A    between atoms: _137  and  _139
REMARK   60  A    between atoms: _139  and  _140
REMARK   61  A    between atoms: _142  and  _144
REMARK   62  A    between atoms: _144  and  _145
REMARK   63  A    between atoms: _147  and  _149
REMARK   64  A    between atoms: _149  and  _150
REMARK   65  A    between atoms: _149  and  _152
REMARK   66  A    between atoms: _152  and  _153
REMARK   67  A    between atoms: _159  and  _161
REMARK   68  A    between atoms: _161  and  _162
REMARK   69  A    between atoms: _161  and  _164
REMARK   70  A    between atoms: _164  and  _165
REMARK   71  A    between atoms: _168  and  _170
REMARK   72  A    between atoms: _170  and  _171
REMARK   73  A    between atoms: _170  and  _173
REMARK   74  A    between atoms: _176  and  _178
REMARK   75  A    between atoms: _178  and  _179
REMARK   76  A    between atoms: _178  and  _181
REMARK   77  A    between atoms: _181  and  _182
REMARK   78  A    between atoms: _185  and  _187
REMARK   79  A    between atoms: _187  and  _188
REMARK   80  A    between atoms: _187  and  _190
REMARK   81  A    between atoms: _190  and  _191
REMARK   82  A    between atoms: _195  and  _196
REMARK   83  A    between atoms: _201  and  _203
REMARK   84  A    between atoms: _203  and  _204
REMARK   85  A    between atoms: _203  and  _206
REMARK   86  A    between atoms: _209  and  _211
REMARK   87  A    between atoms: _211  and  _212
REMARK   88  A    between atoms: _211  and  _214
REMARK   89  A    between atoms: _214  and  _215
REMARK   90  A    between atoms: _220  and  _222
REMARK   91  A    between atoms: _222  and  _223
REMARK   92  A    between atoms: _222  and  _225
REMARK   93  A    between atoms: _225  and  _226
REMARK   94  A    between atoms: _229  and  _231
REMARK   95  A    between atoms: _231  and  _232
REMARK   96  A    between atoms: _231  and  _234
REMARK   97  A    between atoms: _234  and  _235
REMARK   98  A    between atoms: _238  and  _240
REMARK   99  A    between atoms: _240  and  _241
REMARK  100  A    between atoms: _243  and  _245
REMARK  101  A    between atoms: _245  and  _246
REMARK  102  A    between atoms: _245  and  _248
REMARK  103  A    between atoms: _248  and  _249
REMARK  104  A    between atoms: _249  and  _250
REMARK  105  A    between atoms: _250  and  _251
REMARK  106  A    between atoms: _260  and  _262
REMARK  107  A    between atoms: _262  and  _263
REMARK  108  A    between atoms: _262  and  _265
REMARK  109  A    between atoms: _265  and  _266
REMARK  110  A    between atoms: _271  and  _273
REMARK  111  A    between atoms: _273  and  _274
REMARK  112  A    between atoms: _273  and  _276
REMARK  113  A    between atoms: _276  and  _277
REMARK  114  A    between atoms: _277  and  _278
REMARK  115  A    between atoms: _278  and  _279
REMARK  116  A    between atoms: _288  and  _290
REMARK  117  A    between atoms: _290  and  _291
REMARK  118  A    between atoms: _290  and  _293
REMARK  119  A    between atoms: _293  and  _294
REMARK  120  A    between atoms: _297  and  _299
REMARK  121  A    between atoms: _299  and  _300
REMARK  122  A    between atoms: _299  and  _302
REMARK  123  A    between atoms: _302  and  _303
REMARK  124  A    between atoms: _306  and  _308
REMARK  125  A    between atoms: _308  and  _309
REMARK  126  A    between atoms: _308  and  _311
REMARK  127  A    between atoms: _311  and  _312
REMARK  128  A    between atoms: _315  and  _317
REMARK  129  A    between atoms: _317  and  _318
REMARK  130  A    between atoms: _317  and  _320
REMARK  131  A    between atoms: _320  and  _321
REMARK  132  A    between atoms: _324  and  _326
REMARK  133  A    between atoms: _326  and  _327
REMARK  134  A    between atoms: _329  and  _331
REMARK  135  A    between atoms: _331  and  _332
REMARK  136  A    between atoms: _335  and  _337
REMARK  137  A    between atoms: _337  and  _338
REMARK  138  A    between atoms: _337  and  _340
REMARK  139  A    between atoms: _340  and  _341
REMARK  140  A    between atoms: _344  and  _346
REMARK  141  A    between atoms: _346  and  _347
REMARK  142  A    between atoms: _346  and  _349
REMARK  143  A    between atoms: _349  and  _350
REMARK  144  A    between atoms: _353  and  _355
REMARK  145  A    between atoms: _355  and  _356
REMARK  146  A    between atoms: _355  and  _358
REMARK  147  A    between atoms: _358  and  _359
REMARK  148  A    between atoms: _362  and  _364
REMARK  149  A    between atoms: _364  and  _365
REMARK  150  A    between atoms: _364  and  _367
REMARK  151  A    between atoms: _370  and  _372
REMARK  152  A    between atoms: _372  and  _373
REMARK  153  A    between atoms: _372  and  _375
REMARK  154  A    between atoms: _375  and  _376
REMARK  155  A    between atoms: _376  and  _377
REMARK  156  A    between atoms: _377  and  _378
REMARK  157  A    between atoms: _378  and  _379
REMARK  158  A    between atoms: _383  and  _385
REMARK  159  A    between atoms: _385  and  _386
REMARK  160  A    between atoms: _385  and  _388
REMARK  161  A    between atoms: _388  and  _389
REMARK  162  A    between atoms: _389  and  _390
REMARK  163  A    between atoms: _392  and  _394
REMARK  164  A    between atoms: _394  and  _395
REMARK  165  A    between atoms: _394  and  _397
REMARK  166  A    between atoms: _397  and  _398
REMARK  167  A    between atoms: _401  and  _403
REMARK  168  A    between atoms: _403  and  _404
REMARK  169  A    between atoms: _406  and  _408
REMARK  170  A    between atoms: _408  and  _409
REMARK  171  A    between atoms: _411  and  _413
REMARK  172  A    between atoms: _413  and  _414
REMARK  173  A    between atoms: _413  and  _416
REMARK  174  A    between atoms: _416  and  _417
REMARK  175  A    between atoms: _420  and  _422
REMARK  176  A    between atoms: _422  and  _423
REMARK  177  A    between atoms: _425  and  _427
REMARK  178  A    between atoms: _427  and  _428
REMARK  179  A    between atoms: _430  and  _432
REMARK  180  A    between atoms: _432  and  _433
REMARK  181  A    between atoms: _432  and  _435
REMARK  182  A    between atoms: _435  and  _436
REMARK  183  A    between atoms: _442  and  _444
REMARK  184  A    between atoms: _444  and  _445
REMARK  185  A    between atoms: _444  and  _447
REMARK  186  A    between atoms: _447  and  _448
REMARK  187  A    between atoms: _451  and  _453
REMARK  188  A    between atoms: _453  and  _454
REMARK  189  A    between atoms: _453  and  _456
REMARK  190  A    between atoms: _459  and  _461
REMARK  191  A    between atoms: _461  and  _462
REMARK  192  A    between atoms: _461  and  _464
REMARK  193  A    between atoms: _464  and  _465
REMARK  194  A    between atoms: _468  and  _470
REMARK  195  A    between atoms: _470  and  _471
REMARK  196  A    between atoms: _470  and  _473
REMARK  197  A    between atoms: _473  and  _474
REMARK  198  A    between atoms: _478  and  _479
REMARK  199  A    between atoms: _484  and  _486
REMARK  200  A    between atoms: _486  and  _487
REMARK  201  A    between atoms: _486  and  _489
REMARK  202  A    between atoms: _492  and  _494
REMARK  203  A    between atoms: _494  and  _495
REMARK  204  A    between atoms: _494  and  _497
REMARK  205  A    between atoms: _497  and  _498
REMARK  206  A    between atoms: _503  and  _505
REMARK  207  A    between atoms: _505  and  _506
REMARK  208  A    between atoms: _505  and  _508
REMARK  209  A    between atoms: _508  and  _509
REMARK  210  A    between atoms: _512  and  _514
REMARK  211  A    between atoms: _514  and  _515
REMARK  212  A    between atoms: _514  and  _517
REMARK  213  A    between atoms: _517  and  _518
REMARK  214  A    between atoms: _521  and  _523
REMARK  215  A    between atoms: _523  and  _524
REMARK  216  A    between atoms: _526  and  _528
REMARK  217  A    between atoms: _528  and  _529
REMARK  218  A    between atoms: _528  and  _531
REMARK  219  A    between atoms: _531  and  _532
REMARK  220  A    between atoms: _532  and  _533
REMARK  221  A    between atoms: _533  and  _534
REMARK                            x       y       z     vdW  Elec       q    Type
REMARK                         _______ _______ _______ _____ _____    ______ ____
ROOT
ATOM      1  CA  LEU A   1      -7.897   1.447  10.115  0.00  0.00    +0.133 C 
ENDROOT
BRANCH   1   2
ATOM      2  N   LEU A   1      -8.140   2.332  11.268  0.00  0.00    -0.239 NA
ATOM      3  H   LEU A   1      -7.400   2.415  11.994  0.00  0.00    +0.142 HD
ENDBRANCH   1   2
BRANCH   1   4
ATOM      4  C   LEU A   1      -8.147   0.002  10.567  0.00  0.00    +0.224 C 
ATOM      5  O   LEU A   1      -7.663  -0.407  11.611  0.00  0.00    -0.287 OA
ENDBRANCH   1   4
BRANCH   1   6
ATOM      6  CB  LEU A   1      -6.447   1.603   9.654  0.00  0.00    +0.025 C 
BRANCH   6   7
ATOM      7  CG  LEU A   1      -5.969   3.043   9.476  0.00  0.00    +0.002 C 
ATOM      8  CD2 LEU A   1      -4.548   3.028   8.963  0.00  0.00    +0.000 C 
ATOM      9  CD1 LEU A   1      -6.879   3.782   8.499  0.00  0.00    +0.000 C 
ENDBRANCH   6   7
ENDBRANCH   1   6
TORSDOF 4
REMARK  Name = ../refined-set-2016/1mtr/1mtr_pocket.pdb
REMARK  221 active torsions:
REMARK  status: ('A' for Active; 'I' for Inactive)
REMARK    1  A    between atoms: _1  and  _3
REMARK    2  A    between atoms: _3  and  _4
REMARK    3  A    between atoms: _3  and  _6
REMARK    4  A    between atoms: _6  and  _7
REMARK    5  A    between atoms: _7  and  _8
REMARK    6  A    between atoms: _8  and  _9
REMARK    7  A    between atoms: _18  and  _20
REMARK    8  A    between atoms: _20  and  _21
REMARK    9  A    between atoms: _20  and  _23
REMARK   10  A    between atoms: _23  and  _24
REMARK   11  A    between atoms: _27  and  _29
REMARK   12  A    between atoms: _29  and  _30
REMARK   13  A    between atoms: _29  and  _32
REMARK   14  A    between atoms: _32  and  _33
REMARK   15  A    between atoms: _36  and  _38
REMARK   16  A    between atoms: _38  and  _39
REMARK   17  A    between atoms: _38  and  _41
REMARK   18  A    between atoms: _41  and  _42
REMARK   19  A    between atoms: _45  and  _47
REMARK   20  A    between atoms: _47  and  _48
REMARK   21  A    between atoms: _47  and  _50
REMARK   22  A    between atoms: _50  and  _51
REMARK   23  A    between atoms: _54  and  _56
REMARK   24  A    between atoms: _56  and  _57
REMARK   25  A    between atoms: _59  and  _61
REMARK   26  A    between atoms: _61  and  _62
REMARK   27  A    between atoms: _65  and  _67
REMARK   28  A    between atoms: _67  and  _68
REMARK   29  A    between atoms: _67  and  _70
REMARK   30  A    between atoms: _70  and  _71
REMARK   31  A    between atoms: _74  and  _76
REMARK   32  A    between atoms: _76  and  _77
REMARK   33  A    between atoms: _76  and  _79
REMARK   34  A    between atoms: _79  and  _80
REMARK   35  A    between atoms: _83  and  _85
REMARK   36  A    between atoms: _85  and  _86
REMARK   37  A    between atoms: _85  and  _88
REMARK   38  A    between atoms: _88  and  _89
REMARK   39  A    between atoms: _92  and  _94
REMARK   40  A    between atoms: _94  and  _95
REMARK   41  A    between atoms: _94  and  _97
REMARK   42  A    between atoms: _100  and  _102
REMARK   43  A    between atoms: _102  and  _103
REMARK   44  A    between atoms: _102  and  _105
REMARK   45  A    between atoms: _105  and  _106
REMARK   46  A    between atoms: _106  and  _107
REMARK   47  A    between atoms: _109  and  _111
REMARK   48  A    between atoms: _111  and  _112
REMARK   49  A    between atoms: _111  and  _114
REMARK   50  A    between atoms: _114  and  _115
REMARK   51  A    between atoms: _118  and  _120
REMARK   52  A    between atoms: _120  and  _121
REMARK   53  A    between atoms: _123  and  _125
REMARK   54  A    between atoms: _125  and  _126
REMARK   55  A    between atoms: _128  and  _130
REMARK   56  A    between atoms: _130  and  _131
REMARK   57  A    between atoms: _130  and  _133
REMARK   58  A    between atoms: _133  and  _134
REMARK   59  A    between atoms: _137  and  _139
REMARK   60  A    between atoms: _139  and  _140
REMARK   61  A    between atoms: _142  and  _144
REMARK   62  A    between atoms: _144  and  _145
REMARK   63  A    between atoms: _147  and  _149
REMARK   64  A    between atoms: _149  and  _150
REMARK   65  A    between atoms: _149  and  _152
REMARK   66  A    between atoms: _152  and  _153
REMARK   67  A    between atoms: _159  and  _161
REMARK   68  A    between atoms: _161  and  _162
REMARK   69  A    between atoms: _161  and  _164
REMARK   70  A    between atoms: _164  and  _165
REMARK   71  A    between atoms: _168  and  _170
REMARK   72  A    between atoms: _170  and  _171
REMARK   73  A    between atoms: _170  and  _173
REMARK   74  A    between atoms: _176  and  _178
REMARK   75  A    between atoms: _178  and  _179
REMARK   76  A    between atoms: _178  and  _181
REMARK   77  A    between atoms: _181  and  _182
REMARK   78  A    between atoms: _185  and  _187
REMARK   79  A    between atoms: _187  and  _188
REMARK   80  A    between atoms: _187  and  _190
REMARK   81  A    between atoms: _190  and  _191
REMARK   82  A    between atoms: _195  and  _196
REMARK   83  A    between atoms: _201  and  _203
REMARK   84  A    between atoms: _203  and  _204
REMARK   85  A    between atoms: _203  and  _206
REMARK   86  A    between atoms: _209  and  _211
REMARK   87  A    between atoms: _211  and  _212
REMARK   88  A    between atoms: _211  and  _214
REMARK   89  A    between atoms: _214  and  _215
REMARK   90  A    between atoms: _220  and  _222
REMARK   91  A    between atoms: _222  and  _223
REMARK   92  A    between atoms: _222  and  _225
REMARK   93  A    between atoms: _225  and  _226
REMARK   94  A    between atoms: _229  and  _231
REMARK   95  A    between atoms: _231  and  _232
REMARK   96  A    between atoms: _231  and  _234
REMARK   97  A    between atoms: _234  and  _235
REMARK   98  A    between atoms: _238  and  _240
REMARK   99  A    between atoms: _240  and  _241
REMARK  100  A    between atoms: _243  and  _245
REMARK  101  A    between atoms: _245  and  _246
REMARK  102  A    between atoms: _245  and  _248
REMARK  103  A    between atoms: _248  and  _249
REMARK  104  A    between atoms: _249  and  _250
REMARK  105  A    between atoms: _250  and  _251
REMARK  106  A    between atoms: _260  and  _262
REMARK  107  A    between atoms: _262  and  _263
REMARK  108  A    between atoms: _262  and  _265
REMARK  109  A    between atoms: _265  and  _266
REMARK  110  A    between atoms: _271  and  _273
REMARK  111  A    between atoms: _273  and  _274
REMARK  112  A    between atoms: _273  and  _276
REMARK  113  A    between atoms: _276  and  _277
REMARK  114  A    between atoms: _277  and  _278
REMARK  115  A    between atoms: _278  and  _279
REMARK  116  A    between atoms: _288  and  _290
REMARK  117  A    between atoms: _290  and  _291
REMARK  118  A    between atoms: _290  and  _293
REMARK  119  A    between atoms: _293  and  _294
REMARK  120  A    between atoms: _297  and  _299
REMARK  121  A    between atoms: _299  and  _300
REMARK  122  A    between atoms: _299  and  _302
REMARK  123  A    between atoms: _302  and  _303
REMARK  124  A    between atoms: _306  and  _308
REMARK  125  A    between atoms: _308  and  _309
REMARK  126  A    between atoms: _308  and  _311
REMARK  127  A    between atoms: _311  and  _312
REMARK  128  A    between atoms: _315  and  _317
REMARK  129  A    between atoms: _317  and  _318
REMARK  130  A    between atoms: _317  and  _320
REMARK  131  A    between atoms: _320  and  _321
REMARK  132  A    between atoms: _324  and  _326
REMARK  133  A    between atoms: _326  and  _327
REMARK  134  A    between atoms: _329  and  _331
REMARK  135  A    between atoms: _331  and  _332
REMARK  136  A    between atoms: _335  and  _337
REMARK  137  A    between atoms: _337  and  _338
REMARK  138  A    between atoms: _337  and  _340
REMARK  139  A    between atoms: _340  and  _341
REMARK  140  A    between atoms: _344  and  _346
REMARK  141  A    between atoms: _346  and  _347
REMARK  142  A    between atoms: _346  and  _349
REMARK  143  A    between atoms: _349  and  _350
REMARK  144  A    between atoms: _353  and  _355
REMARK  145  A    between atoms: _355  and  _356
REMARK  146  A    between atoms: _355  and  _358
REMARK  147  A    between atoms: _358  and  _359
REMARK  148  A    between atoms: _362  and  _364
REMARK  149  A    between atoms: _364  and  _365
REMARK  150  A    between atoms: _364  and  _367
REMARK  151  A    between atoms: _370  and  _372
REMARK  152  A    between atoms: _372  and  _373
REMARK  153  A    between atoms: _372  and  _375
REMARK  154  A    between atoms: _375  and  _376
REMARK  155  A    between atoms: _376  and  _377
REMARK  156  A    between atoms: _377  and  _378
REMARK  157  A    between atoms: _378  and  _379
REMARK  158  A    between atoms: _383  and  _385
REMARK  159  A    between atoms: _385  and  _386
REMARK  160  A    between atoms: _385  and  _388
REMARK  161  A    between atoms: _388  and  _389
REMARK  162  A    between atoms: _389  and  _390
REMARK  163  A    between atoms: _392  and  _394
REMARK  164  A    between atoms: _394  and  _395
REMARK  165  A    between atoms: _394  and  _397
REMARK  166  A    between atoms: _397  and  _398
REMARK  167  A    between atoms: _401  and  _403
REMARK  168  A    between atoms: _403  and  _404
REMARK  169  A    between atoms: _406  and  _408
REMARK  170  A    between atoms: _408  and  _409
REMARK  171  A    between atoms: _411  and  _413
REMARK  172  A    between atoms: _413  and  _414
REMARK  173  A    between atoms: _413  and  _416
REMARK  174  A    between atoms: _416  and  _417
REMARK  175  A    between atoms: _420  and  _422
REMARK  176  A    between atoms: _422  and  _423
REMARK  177  A    between atoms: _425  and  _427
REMARK  178  A    between atoms: _427  and  _428
REMARK  179  A    between atoms: _430  and  _432
REMARK  180  A    between atoms: _432  and  _433
REMARK  181  A    between atoms: _432  and  _435
REMARK  182  A    between atoms: _435  and  _436
REMARK  183  A    between atoms: _442  and  _444
REMARK  184  A    between atoms: _444  and  _445
REMARK  185  A    between atoms: _444  and  _447
REMARK  186  A    between atoms: _447  and  _448
REMARK  187  A    between atoms: _451  and  _453
REMARK  188  A    between atoms: _453  and  _454
REMARK  189  A    between atoms: _453  and  _456
REMARK  190  A    between atoms: _459  and  _461
REMARK  191  A    between atoms: _461  and  _462
REMARK  192  A    between atoms: _461  and  _464
REMARK  193  A    between atoms: _464  and  _465
REMARK  194  A    between atoms: _468  and  _470
REMARK  195  A    between atoms: _470  and  _471
REMARK  196  A    between atoms: _470  and  _473
REMARK  197  A    between atoms: _473  and  _474
REMARK  198  A    between atoms: _478  and  _479
REMARK  199  A    between atoms: _484  and  _486
REMARK  200  A    between atoms: _486  and  _487
REMARK  201  A    between atoms: _486  and  _489
REMARK  202  A    between atoms: _492  and  _494
REMARK  203  A    between atoms: _494  and  _495
REMARK  204  A    between atoms: _494  and  _497
REMARK  205  A    between atoms: _497  and  _498
REMARK  206  A    between atoms: _503  and  _505
REMARK  207  A    between atoms: _505  and  _506
REMARK  208  A    between atoms: _505  and  _508
REMARK  209  A    between atoms: _508  and  _509
REMARK  210  A    between atoms: _512  and  _514
REMARK  211  A    between atoms: _514  and  _515
REMARK  212  A    between atoms: _514  and  _517
REMARK  213  A    between atoms: _517  and  _518
REMARK  214  A    between atoms: _521  and  _523
REMARK  215  A    between atoms: _523  and  _524
REMARK  216  A    between atoms: _526  and  _528
REMARK  217  A    between atoms: _528  and  _529
REMARK  218  A    between atoms: _528  and  _531
REMARK  219  A    between atoms: _531  and  _532
REMARK  220  A    between atoms: _532  and  _533
REMARK  221  A    between atoms: _533  and  _534
REMARK                            x       y       z     vdW  Elec       q    Type
REMARK                         _______ _______ _______ _____ _____    ______ ____
ROOT
ATOM      1  C   ILE A   5      -3.413   0.594  18.008  0.00  0.00    +0.241 C 
ATOM      2  N   ILE A   6      -3.224   1.261  19.139  0.00  0.00    -0.297 N 
ATOM      3  H   ILE A   6      -2.719   0.804  19.925  0.00  0.00    +0.150 HD
ATOM      4  O   ILE A   5      -4.078   1.037  17.069  0.00  0.00    -0.273 OA
ENDROOT
BRANCH   2   5
ATOM      5  CA  ILE A   6      -3.715   2.631  19.297  0.00  0.00    +0.149 C 
BRANCH   5   6
ATOM      6  C   ILE A   6      -2.511   3.515  18.960  0.00  0.00    +0.241 C 
ATOM      7  O   ILE A   6      -1.520   3.530  19.699  0.00  0.00    -0.273 OA
ATOM      8  N   GLY A   7      -2.599   4.236  17.843  0.00  0.00    -0.295 N 
ATOM      9  H   GLY A   7      -3.470   4.194  17.276  0.00  0.00    +0.150 HD
BRANCH   8  10
ATOM     10  CA  GLY A   7      -1.506   5.077  17.403  0.00  0.00    +0.176 C 
BRANCH  10  11
ATOM     11  C   GLY A   7      -1.592   6.509  17.868  0.00  0.00    +0.243 C 
ATOM     12  O   GLY A   7      -2.535   6.876  18.579  0.00  0.00    -0.273 OA
ATOM     13  N   ARG A   8      -0.639   7.321  17.405  0.00  0.00    -0.297 N 
ATOM     14  H   ARG A   8       0.062   6.929  16.744  0.00  0.00    +0.150 HD
BRANCH  13  15
ATOM     15  CA  ARG A   8      -0.524   8.744  17.779  0.00  0.00    +0.149 C 
BRANCH  15  16
ATOM     16  C   ARG A   8      -1.752   9.620  17.519  0.00  0.00    +0.241 C 
ATOM     17  O   ARG A   8      -2.054  10.526  18.297  0.00  0.00    -0.273 OA
ATOM     18  N   ASN A   9      -2.501   9.313  16.472  0.00  0.00    -0.298 N 
ATOM     19  H   ASN A   9      -2.242   8.504  15.872  0.00  0.00    +0.150 HD
BRANCH  18  20
ATOM     20  CA  ASN A   9      -3.690  10.101  16.151  0.00  0.00    +0.146 C 
BRANCH  20  21
ATOM     21  C   ASN A   9      -4.712  10.092  17.312  0.00  0.00    +0.227 C 
ATOM     22  O   ASN A   9      -5.434  11.072  17.519  0.00  0.00    -0.286 OA
ENDBRANCH  20  21
BRANCH  20  23
ATOM     23  CB  ASN A   9      -4.316   9.600  14.817  0.00  0.00    +0.112 C 
BRANCH  23  24
ATOM     24  CG  ASN A   9      -4.964   8.235  14.935  0.00  0.00    +0.222 C 
ATOM     25  OD1 ASN A   9      -4.359   7.272  15.407  0.00  0.00    -0.275 OA
ATOM     26  ND2 ASN A   9      -6.218   8.153  14.516  0.00  0.00    -0.329 N 
ATOM     27 HD21 ASN A   9      -6.729   7.250  14.579  0.00  0.00    +0.145 HD
ATOM     28 HD22 ASN A   9      -6.691   8.992  14.124  0.00  0.00    +0.145 HD
ENDBRANCH  23  24
ENDBRANCH  20  23
ENDBRANCH  18  20
ENDBRANCH  15  16
BRANCH  15  29
ATOM     29  CB  ARG A   8       0.745   9.373  17.179  0.00  0.00    +0.033 C 
BRANCH  29  30
ATOM     30  CG  ARG A   8       2.040   8.917  17.859  0.00  0.00    +0.045 C 
BRANCH  30  31
ATOM     31  CD  ARG A   8       3.243   9.731  17.379  0.00  0.00    +0.174 C 
BRANCH  31  32
ATOM     32  NE  ARG A   8       3.377   9.692  15.905  0.00  0.00    -0.265 N 
ATOM     33  HE  ARG A   8       3.788   8.835  15.484  0.00  0.00    +0.259 HD
ATOM     34  CZ  ARG A   8       3.012  10.669  15.075  0.00  0.00    +0.342 C 
ATOM     35  NH2 ARG A   8       2.481  11.808  15.521  0.00  0.00    -0.292 N 
ATOM     36 HH21 ARG A   8       2.342  11.952  16.541  0.00  0.00    +0.255 HD
ATOM     37 HH22 ARG A   8       2.206  12.552  14.848  0.00  0.00    +0.255 HD
ATOM     38  NH1 ARG A   8       3.138  10.477  13.776  0.00  0.00    -0.292 N 
ATOM     39 HH11 ARG A   8       3.516   9.577  13.418  0.00  0.00    +0.255 HD
ATOM     40 HH12 ARG A   8       2.859  11.226  13.110  0.00  0.00    +0.255 HD
ENDBRANCH  31  32
ENDBRANCH  30  31
ENDBRANCH  29  30
ENDBRANCH  15  29
ENDBRANCH  13  15
ENDBRANCH  10  11
ENDBRANCH   8  10
ENDBRANCH   5   6
BRANCH   5  41
ATOM     41  CB  ILE A   6      -4.199   2.920  20.726  0.00  0.00    +0.027 C 
ATOM     42  CG2 ILE A   6      -4.717   4.373  20.787  0.00  0.00    +0.002 C 
BRANCH  41  43
ATOM     43  CG1 ILE A   6      -5.317   1.951  21.108  0.00  0.00    +0.002 C 
ATOM     44  CD1 ILE A   6      -6.562   2.060  20.201  0.00  0.00    +0.000 C 
ENDBRANCH  41  43
ENDBRANCH   5  41
ENDBRANCH   2   5
BRANCH   1  45
ATOM     45  CA  ILE A   5      -2.790  -0.783  17.932  0.00  0.00    +0.149 C 
BRANCH  45  48
ATOM     46  C   ASN A   4      -4.011  -2.801  18.567  0.00  0.00    +0.241 C 
ATOM     47  O   ASN A   4      -3.402  -2.908  19.630  0.00  0.00    -0.273 OA
ATOM     48  N   ILE A   5      -3.777  -1.830  17.703  0.00  0.00    -0.297 N 
ATOM     49  H   ILE A   5      -4.323  -1.812  16.818  0.00  0.00    +0.150 HD
BRANCH  46  50
ATOM     50  CA  ASN A   4      -5.021  -3.848  18.123  0.00  0.00    +0.158 C 
BRANCH  50  52
ATOM     51  C   VAL A   3      -3.374  -5.550  17.447  0.00  0.00    +0.241 C 
ATOM     52  N   ASN A   4      -4.327  -5.139  18.286  0.00  0.00    -0.297 N 
ATOM     53  H   ASN A   4      -4.590  -5.752  19.084  0.00  0.00    +0.150 HD
ATOM     54  O   VAL A   3      -3.064  -4.928  16.424  0.00  0.00    -0.273 OA
BRANCH  51  55
ATOM     55  CA  VAL A   3      -2.701  -6.902  17.770  0.00  0.00    +0.149 C 
BRANCH  55  58
ATOM     56  C   PRO A   2      -1.989  -8.820  16.416  0.00  0.00    +0.241 C 
ATOM     57  O   PRO A   2      -2.415  -9.628  17.227  0.00  0.00    -0.273 OA
ATOM     58  N   VAL A   3      -2.123  -7.504  16.554  0.00  0.00    -0.297 N 
ATOM     59  H   VAL A   3      -1.811  -6.881  15.782  0.00  0.00    +0.150 HD
BRANCH  56  62
ATOM     60  C   THR A   1      -2.823  -8.186  13.569  0.00  0.00    +0.244 C 
ATOM     61  N   PRO A   2      -1.593  -8.394  14.045  0.00  0.00    -0.272 N 
ATOM     62  CA  PRO A   2      -1.298  -9.292  15.158  0.00  0.00    +0.152 C 
ATOM     63  CB  PRO A   2       0.210  -9.140  15.322  0.00  0.00    +0.031 C 
ATOM     64  CG  PRO A   2       0.667  -8.799  13.945  0.00  0.00    +0.024 C 
ATOM     65  CD  PRO A   2      -0.356  -7.843  13.461  0.00  0.00    +0.094 C 
ATOM     66  O   THR A   1      -3.811  -8.785  14.009  0.00  0.00    -0.273 OA
BRANCH  60  67
ATOM     67  CA  THR A   1      -2.931  -7.217  12.416  0.00  0.00    +0.172 C 
BRANCH  67  68
ATOM     68  CB  THR A   1      -3.103  -5.733  12.932  0.00  0.00    +0.135 C 
ATOM     69  CG2 THR A   1      -4.491  -5.492  13.572  0.00  0.00    +0.034 C 
BRANCH  68  70
ATOM     70  OG1 THR A   1      -2.082  -5.442  13.888  0.00  0.00    -0.383 OA
ATOM     71  HG1 THR A   1      -2.157  -6.069  14.651  0.00  0.00    +0.210 HD
ENDBRANCH  68  70
ENDBRANCH  67  68
BRANCH  67  72
ATOM     72  N   THR A   1      -3.986  -7.608  11.487  0.00  0.00    -0.236 NA
ATOM     73  H   THR A   1      -4.904  -7.929  11.855  0.00  0.00    +0.142 HD
ENDBRANCH  67  72
ENDBRANCH  60  67
ENDBRANCH  56  62
ENDBRANCH  55  58
BRANCH  55  74
ATOM     74  CB  VAL A   3      -1.538  -6.704  18.819  0.00  0.00    +0.027 C 
ATOM     75  CG2 VAL A   3      -2.047  -6.173  20.148  0.00  0.00    +0.002 C 
ATOM     76  CG1 VAL A   3      -0.477  -5.778  18.254  0.00  0.00    +0.002 C 
ENDBRANCH  55  74
ENDBRANCH  51  55
ENDBRANCH  50  52
BRANCH  50  77
ATOM     77  CB  ASN A   4      -6.300  -3.808  18.969  0.00  0.00    +0.114 C 
BRANCH  77  78
ATOM     78  CG  ASN A   4      -7.307  -4.830  18.511  0.00  0.00    +0.222 C 
ATOM     79  ND2 ASN A   4      -7.837  -5.623  19.432  0.00  0.00    -0.329 N 
ATOM     80 HD21 ASN A   4      -7.594  -5.491  20.434  0.00  0.00    +0.145 HD
ATOM     81 HD22 ASN A   4      -8.496  -6.377  19.152  0.00  0.00    +0.145 HD
ATOM     82  OD1 ASN A   4      -7.561  -4.943  17.312  0.00  0.00    -0.275 OA
ENDBRANCH  77  78
ENDBRANCH  50  77
ENDBRANCH  46  50
ENDBRANCH  45  48
BRANCH  45  83
ATOM     83  CB  ILE A   5      -1.777  -0.766  16.764  0.00  0.00    +0.027 C 
ATOM     84  CG2 ILE A   5      -0.907   0.496  16.796  0.00  0.00    +0.002 C 
BRANCH  83  85
ATOM     85  CG1 ILE A   5      -0.959  -2.057  16.786  0.00  0.00    +0.002 C 
ATOM     86  CD1 ILE A   5      -0.500  -2.517  15.419  0.00  0.00    +0.000 C 
ENDBRANCH  83  85
ENDBRANCH  45  83
ENDBRANCH   1  45
TORSDOF 32
REMARK  Name = ../refined-set-2016/1mtr/1mtr_pocket.pdb
REMARK  221 active torsions:
REMARK  status: ('A' for Active; 'I' for Inactive)
REMARK    1  A    between atoms: _1  and  _3
REMARK    2  A    between atoms: _3  and  _4
REMARK    3  A    between atoms: _3  and  _6
REMARK    4  A    between atoms: _6  and  _7
REMARK    5  A    between atoms: _7  and  _8
REMARK    6  A    between atoms: _8  and  _9
REMARK    7  A    between atoms: _18  and  _20
REMARK    8  A    between atoms: _20  and  _21
REMARK    9  A    between atoms: _20  and  _23
REMARK   10  A    between atoms: _23  and  _24
REMARK   11  A    between atoms: _27  and  _29
REMARK   12  A    between atoms: _29  and  _30
REMARK   13  A    between atoms: _29  and  _32
REMARK   14  A    between atoms: _32  and  _33
REMARK   15  A    between atoms: _36  and  _38
REMARK   16  A    between atoms: _38  and  _39
REMARK   17  A    between atoms: _38  and  _41
REMARK   18  A    between atoms: _41  and  _42
REMARK   19  A    between atoms: _45  and  _47
REMARK   20  A    between atoms: _47  and  _48
REMARK   21  A    between atoms: _47  and  _50
REMARK   22  A    between atoms: _50  and  _51
REMARK   23  A    between atoms: _54  and  _56
REMARK   24  A    between atoms: _56  and  _57
REMARK   25  A    between atoms: _59  and  _61
REMARK   26  A    between atoms: _61  and  _62
REMARK   27  A    between atoms: _65  and  _67
REMARK   28  A    between atoms: _67  and  _68
REMARK   29  A    between atoms: _67  and  _70
REMARK   30  A    between atoms: _70  and  _71
REMARK   31  A    between atoms: _74  and  _76
REMARK   32  A    between atoms: _76  and  _77
REMARK   33  A    between atoms: _76  and  _79
REMARK   34  A    between atoms: _79  and  _80
REMARK   35  A    between atoms: _83  and  _85
REMARK   36  A    between atoms: _85  and  _86
REMARK   37  A    between atoms: _85  and  _88
REMARK   38  A    between atoms: _88  and  _89
REMARK   39  A    between atoms: _92  and  _94
REMARK   40  A    between atoms: _94  and  _95
REMARK   41  A    between atoms: _94  and  _97
REMARK   42  A    between atoms: _100  and  _102
REMARK   43  A    between atoms: _102  and  _103
REMARK   44  A    between atoms: _102  and  _105
REMARK   45  A    between atoms: _105  and  _106
REMARK   46  A    between atoms: _106  and  _107
REMARK   47  A    between atoms: _109  and  _111
REMARK   48  A    between atoms: _111  and  _112
REMARK   49  A    between atoms: _111  and  _114
REMARK   50  A    between atoms: _114  and  _115
REMARK   51  A    between atoms: _118  and  _120
REMARK   52  A    between atoms: _120  and  _121
REMARK   53  A    between atoms: _123  and  _125
REMARK   54  A    between atoms: _125  and  _126
REMARK   55  A    between atoms: _128  and  _130
REMARK   56  A    between atoms: _130  and  _131
REMARK   57  A    between atoms: _130  and  _133
REMARK   58  A    between atoms: _133  and  _134
REMARK   59  A    between atoms: _137  and  _139
REMARK   60  A    between atoms: _139  and  _140
REMARK   61  A    between atoms: _142  and  _144
REMARK   62  A    between atoms: _144  and  _145
REMARK   63  A    between atoms: _147  and  _149
REMARK   64  A    between atoms: _149  and  _150
REMARK   65  A    between atoms: _149  and  _152
REMARK   66  A    between atoms: _152  and  _153
REMARK   67  A    between atoms: _159  and  _161
REMARK   68  A    between atoms: _161  and  _162
REMARK   69  A    between atoms: _161  and  _164
REMARK   70  A    between atoms: _164  and  _165
REMARK   71  A    between atoms: _168  and  _170
REMARK   72  A    between atoms: _170  and  _171
REMARK   73  A    between atoms: _170  and  _173
REMARK   74  A    between atoms: _176  and  _178
REMARK   75  A    between atoms: _178  and  _179
REMARK   76  A    between atoms: _178  and  _181
REMARK   77  A    between atoms: _181  and  _182
REMARK   78  A    between atoms: _185  and  _187
REMARK   79  A    between atoms: _187  and  _188
REMARK   80  A    between atoms: _187  and  _190
REMARK   81  A    between atoms: _190  and  _191
REMARK   82  A    between atoms: _195  and  _196
REMARK   83  A    between atoms: _201  and  _203
REMARK   84  A    between atoms: _203  and  _204
REMARK   85  A    between atoms: _203  and  _206
REMARK   86  A    between atoms: _209  and  _211
REMARK   87  A    between atoms: _211  and  _212
REMARK   88  A    between atoms: _211  and  _214
REMARK   89  A    between atoms: _214  and  _215
REMARK   90  A    between atoms: _220  and  _222
REMARK   91  A    between atoms: _222  and  _223
REMARK   92  A    between atoms: _222  and  _225
REMARK   93  A    between atoms: _225  and  _226
REMARK   94  A    between atoms: _229  and  _231
REMARK   95  A    between atoms: _231  and  _232
REMARK   96  A    between atoms: _231  and  _234
REMARK   97  A    between atoms: _234  and  _235
REMARK   98  A    between atoms: _238  and  _240
REMARK   99  A    between atoms: _240  and  _241
REMARK  100  A    between atoms: _243  and  _245
REMARK  101  A    between atoms: _245  and  _246
REMARK  102  A    between atoms: _245  and  _248
REMARK  103  A    between atoms: _248  and  _249
REMARK  104  A    between atoms: _249  and  _250
REMARK  105  A    between atoms: _250  and  _251
REMARK  106  A    between atoms: _260  and  _262
REMARK  107  A    between atoms: _262  and  _263
REMARK  108  A    between atoms: _262  and  _265
REMARK  109  A    between atoms: _265  and  _266
REMARK  110  A    between atoms: _271  and  _273
REMARK  111  A    between atoms: _273  and  _274
REMARK  112  A    between atoms: _273  and  _276
REMARK  113  A    between atoms: _276  and  _277
REMARK  114  A    between atoms: _277  and  _278
REMARK  115  A    between atoms: _278  and  _279
REMARK  116  A    between atoms: _288  and  _290
REMARK  117  A    between atoms: _290  and  _291
REMARK  118  A    between atoms: _290  and  _293
REMARK  119  A    between atoms: _293  and  _294
REMARK  120  A    between atoms: _297  and  _299
REMARK  121  A    between atoms: _299  and  _300
REMARK  122  A    between atoms: _299  and  _302
REMARK  123  A    between atoms: _302  and  _303
REMARK  124  A    between atoms: _306  and  _308
REMARK  125  A    between atoms: _308  and  _309
REMARK  126  A    between atoms: _308  and  _311
REMARK  127  A    between atoms: _311  and  _312
REMARK  128  A    between atoms: _315  and  _317
REMARK  129  A    between atoms: _317  and  _318
REMARK  130  A    between atoms: _317  and  _320
REMARK  131  A    between atoms: _320  and  _321
REMARK  132  A    between atoms: _324  and  _326
REMARK  133  A    between atoms: _326  and  _327
REMARK  134  A    between atoms: _329  and  _331
REMARK  135  A    between atoms: _331  and  _332
REMARK  136  A    between atoms: _335  and  _337
REMARK  137  A    between atoms: _337  and  _338
REMARK  138  A    between atoms: _337  and  _340
REMARK  139  A    between atoms: _340  and  _341
REMARK  140  A    between atoms: _344  and  _346
REMARK  141  A    between atoms: _346  and  _347
REMARK  142  A    between atoms: _346  and  _349
REMARK  143  A    between atoms: _349  and  _350
REMARK  144  A    between atoms: _353  and  _355
REMARK  145  A    between atoms: _355  and  _356
REMARK  146  A    between atoms: _355  and  _358
REMARK  147  A    between atoms: _358  and  _359
REMARK  148  A    between atoms: _362  and  _364
REMARK  149  A    between atoms: _364  and  _365
REMARK  150  A    between atoms: _364  and  _367
REMARK  151  A    between atoms: _370  and  _372
REMARK  152  A    between atoms: _372  and  _373
REMARK  153  A    between atoms: _372  and  _375
REMARK  154  A    between atoms: _375  and  _376
REMARK  155  A    between atoms: _376  and  _377
REMARK  156  A    between atoms: _377  and  _378
REMARK  157  A    between atoms: _378  and  _379
REMARK  158  A    between atoms: _383  and  _385
REMARK  159  A    between atoms: _385  and  _386
REMARK  160  A    between atoms: _385  and  _388
REMARK  161  A    between atoms: _388  and  _389
REMARK  162  A    between atoms: _389  and  _390
REMARK  163  A    between atoms: _392  and  _394
REMARK  164  A    between atoms: _394  and  _395
REMARK  165  A    between atoms: _394  and  _397
REMARK  166  A    between atoms: _397  and  _398
REMARK  167  A    between atoms: _401  and  _403
REMARK  168  A    between atoms: _403  and  _404
REMARK  169  A    between atoms: _406  and  _408
REMARK  170  A    between atoms: _408  and  _409
REMARK  171  A    between atoms: _411  and  _413
REMARK  172  A    between atoms: _413  and  _414
REMARK  173  A    between atoms: _413  and  _416
REMARK  174  A    between atoms: _416  and  _417
REMARK  175  A    between atoms: _420  and  _422
REMARK  176  A    between atoms: _422  and  _423
REMARK  177  A    between atoms: _425  and  _427
REMARK  178  A    between atoms: _427  and  _428
REMARK  179  A    between atoms: _430  and  _432
REMARK  180  A    between atoms: _432  and  _433
REMARK  181  A    between atoms: _432  and  _435
REMARK  182  A    between atoms: _435  and  _436
REMARK  183  A    between atoms: _442  and  _444
REMARK  184  A    between atoms: _444  and  _445
REMARK  185  A    between atoms: _444  and  _447
REMARK  186  A    between atoms: _447  and  _448
REMARK  187  A    between atoms: _451  and  _453
REMARK  188  A    between atoms: _453  and  _454
REMARK  189  A    between atoms: _453  and  _456
REMARK  190  A    between atoms: _459  and  _461
REMARK  191  A    between atoms: _461  and  _462
REMARK  192  A    between atoms: _461  and  _464
REMARK  193  A    between atoms: _464  and  _465
REMARK  194  A    between atoms: _468  and  _470
REMARK  195  A    between atoms: _470  and  _471
REMARK  196  A    between atoms: _470  and  _473
REMARK  197  A    between atoms: _473  and  _474
REMARK  198  A    between atoms: _478  and  _479
REMARK  199  A    between atoms: _484  and  _486
REMARK  200  A    between atoms: _486  and  _487
REMARK  201  A    between atoms: _486  and  _489
REMARK  202  A    between atoms: _492  and  _494
REMARK  203  A    between atoms: _494  and  _495
REMARK  204  A    between atoms: _494  and  _497
REMARK  205  A    between atoms: _497  and  _498
REMARK  206  A    between atoms: _503  and  _505
REMARK  207  A    between atoms: _505  and  _506
REMARK  208  A    between atoms: _505  and  _508
REMARK  209  A    between atoms: _508  and  _509
REMARK  210  A    between atoms: _512  and  _514
REMARK  211  A    between atoms: _514  and  _515
REMARK  212  A    between atoms: _514  and  _517
REMARK  213  A    between atoms: _517  and  _518
REMARK  214  A    between atoms: _521  and  _523
REMARK  215  A    between atoms: _523  and  _524
REMARK  216  A    between atoms: _526  and  _528
REMARK  217  A    between atoms: _528  and  _529
REMARK  218  A    between atoms: _528  and  _531
REMARK  219  A    between atoms: _531  and  _532
REMARK  220  A    between atoms: _532  and  _533
REMARK  221  A    between atoms: _533  and  _534
REMARK                            x       y       z     vdW  Elec       q    Type
REMARK                         _______ _______ _______ _____ _____    ______ ____
ROOT
ATOM      1  NE  ARG A   1       6.708   8.661  11.540  0.00  0.00    -0.265 N 
ATOM      2  HE  ARG A   1       5.707   8.941  11.522  0.00  0.00    +0.259 HD
ATOM      3  CZ  ARG A   1       7.105   7.734  10.669  0.00  0.00    +0.342 C 
ATOM      4  NH2 ARG A   1       8.365   7.327  10.636  0.00  0.00    -0.292 N 
ATOM      5 HH21 ARG A   1       9.060   7.732  11.296  0.00  0.00    +0.255 HD
ATOM      6 HH22 ARG A   1       8.660   6.603   9.950  0.00  0.00    +0.255 HD
ATOM      7  NH1 ARG A   1       6.225   7.206   9.831  0.00  0.00    -0.292 N 
ATOM      8 HH11 ARG A   1       5.232   7.516   9.856  0.00  0.00    +0.255 HD
ATOM      9 HH12 ARG A   1       6.527   6.482   9.148  0.00  0.00    +0.255 HD
ENDROOT
BRANCH   1  10
ATOM     10  CD  ARG A   1       7.578   9.315  12.521  0.00  0.00    +0.174 C 
BRANCH  10  11
ATOM     11  CG  ARG A   1       6.754   9.921  13.597  0.00  0.00    +0.045 C 
BRANCH  11  12
ATOM     12  CB  ARG A   1       7.609  10.399  14.686  0.00  0.00    +0.029 C 
BRANCH  12  13
ATOM     13  CA  ARG A   1       6.838  10.977  15.863  0.00  0.00    +0.133 C 
BRANCH  13  14
ATOM     14  N   ARG A   1       6.240  12.265  15.490  0.00  0.00    -0.239 NA
ATOM     15  H   ARG A   1       6.346  12.613  14.516  0.00  0.00    +0.142 HD
ENDBRANCH  13  14
BRANCH  13  16
ATOM     16  C   ARG A   1       7.857  11.285  16.939  0.00  0.00    +0.224 C 
ATOM     17  O   ARG A   1       8.636  12.228  16.784  0.00  0.00    -0.287 OA
ENDBRANCH  13  16
ENDBRANCH  12  13
ENDBRANCH  11  12
ENDBRANCH  10  11
ENDBRANCH   1  10
TORSDOF 6
REMARK  Name = ../refined-set-2016/1mtr/1mtr_pocket.pdb
REMARK  221 active torsions:
REMARK  status: ('A' for Active; 'I' for Inactive)
REMARK    1  A    between atoms: _1  and  _3
REMARK    2  A    between atoms: _3  and  _4
REMARK    3  A    between atoms: _3  and  _6
REMARK    4  A    between atoms: _6  and  _7
REMARK    5  A    between atoms: _7  and  _8
REMARK    6  A    between atoms: _8  and  _9
REMARK    7  A    between atoms: _18  and  _20
REMARK    8  A    between atoms: _20  and  _21
REMARK    9  A    between atoms: _20  and  _23
REMARK   10  A    between atoms: _23  and  _24
REMARK   11  A    between atoms: _27  and  _29
REMARK   12  A    between atoms: _29  and  _30
REMARK   13  A    between atoms: _29  and  _32
REMARK   14  A    between atoms: _32  and  _33
REMARK   15  A    between atoms: _36  and  _38
REMARK   16  A    between atoms: _38  and  _39
REMARK   17  A    between atoms: _38  and  _41
REMARK   18  A    between atoms: _41  and  _42
REMARK   19  A    between atoms: _45  and  _47
REMARK   20  A    between atoms: _47  and  _48
REMARK   21  A    between atoms: _47  and  _50
REMARK   22  A    between atoms: _50  and  _51
REMARK   23  A    between atoms: _54  and  _56
REMARK   24  A    between atoms: _56  and  _57
REMARK   25  A    between atoms: _59  and  _61
REMARK   26  A    between atoms: _61  and  _62
REMARK   27  A    between atoms: _65  and  _67
REMARK   28  A    between atoms: _67  and  _68
REMARK   29  A    between atoms: _67  and  _70
REMARK   30  A    between atoms: _70  and  _71
REMARK   31  A    between atoms: _74  and  _76
REMARK   32  A    between atoms: _76  and  _77
REMARK   33  A    between atoms: _76  and  _79
REMARK   34  A    between atoms: _79  and  _80
REMARK   35  A    between atoms: _83  and  _85
REMARK   36  A    between atoms: _85  and  _86
REMARK   37  A    between atoms: _85  and  _88
REMARK   38  A    between atoms: _88  and  _89
REMARK   39  A    between atoms: _92  and  _94
REMARK   40  A    between atoms: _94  and  _95
REMARK   41  A    between atoms: _94  and  _97
REMARK   42  A    between atoms: _100  and  _102
REMARK   43  A    between atoms: _102  and  _103
REMARK   44  A    between atoms: _102  and  _105
REMARK   45  A    between atoms: _105  and  _106
REMARK   46  A    between atoms: _106  and  _107
REMARK   47  A    between atoms: _109  and  _111
REMARK   48  A    between atoms: _111  and  _112
REMARK   49  A    between atoms: _111  and  _114
REMARK   50  A    between atoms: _114  and  _115
REMARK   51  A    between atoms: _118  and  _120
REMARK   52  A    between atoms: _120  and  _121
REMARK   53  A    between atoms: _123  and  _125
REMARK   54  A    between atoms: _125  and  _126
REMARK   55  A    between atoms: _128  and  _130
REMARK   56  A    between atoms: _130  and  _131
REMARK   57  A    between atoms: _130  and  _133
REMARK   58  A    between atoms: _133  and  _134
REMARK   59  A    between atoms: _137  and  _139
REMARK   60  A    between atoms: _139  and  _140
REMARK   61  A    between atoms: _142  and  _144
REMARK   62  A    between atoms: _144  and  _145
REMARK   63  A    between atoms: _147  and  _149
REMARK   64  A    between atoms: _149  and  _150
REMARK   65  A    between atoms: _149  and  _152
REMARK   66  A    between atoms: _152  and  _153
REMARK   67  A    between atoms: _159  and  _161
REMARK   68  A    between atoms: _161  and  _162
REMARK   69  A    between atoms: _161  and  _164
REMARK   70  A    between atoms: _164  and  _165
REMARK   71  A    between atoms: _168  and  _170
REMARK   72  A    between atoms: _170  and  _171
REMARK   73  A    between atoms: _170  and  _173
REMARK   74  A    between atoms: _176  and  _178
REMARK   75  A    between atoms: _178  and  _179
REMARK   76  A    between atoms: _178  and  _181
REMARK   77  A    between atoms: _181  and  _182
REMARK   78  A    between atoms: _185  and  _187
REMARK   79  A    between atoms: _187  and  _188
REMARK   80  A    between atoms: _187  and  _190
REMARK   81  A    between atoms: _190  and  _191
REMARK   82  A    between atoms: _195  and  _196
REMARK   83  A    between atoms: _201  and  _203
REMARK   84  A    between atoms: _203  and  _204
REMARK   85  A    between atoms: _203  and  _206
REMARK   86  A    between atoms: _209  and  _211
REMARK   87  A    between atoms: _211  and  _212
REMARK   88  A    between atoms: _211  and  _214
REMARK   89  A    between atoms: _214  and  _215
REMARK   90  A    between atoms: _220  and  _222
REMARK   91  A    between atoms: _222  and  _223
REMARK   92  A    between atoms: _222  and  _225
REMARK   93  A    between atoms: _225  and  _226
REMARK   94  A    between atoms: _229  and  _231
REMARK   95  A    between atoms: _231  and  _232
REMARK   96  A    between atoms: _231  and  _234
REMARK   97  A    between atoms: _234  and  _235
REMARK   98  A    between atoms: _238  and  _240
REMARK   99  A    between atoms: _240  and  _241
REMARK  100  A    between atoms: _243  and  _245
REMARK  101  A    between atoms: _245  and  _246
REMARK  102  A    between atoms: _245  and  _248
REMARK  103  A    between atoms: _248  and  _249
REMARK  104  A    between atoms: _249  and  _250
REMARK  105  A    between atoms: _250  and  _251
REMARK  106  A    between atoms: _260  and  _262
REMARK  107  A    between atoms: _262  and  _263
REMARK  108  A    between atoms: _262  and  _265
REMARK  109  A    between atoms: _265  and  _266
REMARK  110  A    between atoms: _271  and  _273
REMARK  111  A    between atoms: _273  and  _274
REMARK  112  A    between atoms: _273  and  _276
REMARK  113  A    between atoms: _276  and  _277
REMARK  114  A    between atoms: _277  and  _278
REMARK  115  A    between atoms: _278  and  _279
REMARK  116  A    between atoms: _288  and  _290
REMARK  117  A    between atoms: _290  and  _291
REMARK  118  A    between atoms: _290  and  _293
REMARK  119  A    between atoms: _293  and  _294
REMARK  120  A    between atoms: _297  and  _299
REMARK  121  A    between atoms: _299  and  _300
REMARK  122  A    between atoms: _299  and  _302
REMARK  123  A    between atoms: _302  and  _303
REMARK  124  A    between atoms: _306  and  _308
REMARK  125  A    between atoms: _308  and  _309
REMARK  126  A    between atoms: _308  and  _311
REMARK  127  A    between atoms: _311  and  _312
REMARK  128  A    between atoms: _315  and  _317
REMARK  129  A    between atoms: _317  and  _318
REMARK  130  A    between atoms: _317  and  _320
REMARK  131  A    between atoms: _320  and  _321
REMARK  132  A    between atoms: _324  and  _326
REMARK  133  A    between atoms: _326  and  _327
REMARK  134  A    between atoms: _329  and  _331
REMARK  135  A    between atoms: _331  and  _332
REMARK  136  A    between atoms: _335  and  _337
REMARK  137  A    between atoms: _337  and  _338
REMARK  138  A    between atoms: _337  and  _340
REMARK  139  A    between atoms: _340  and  _341
REMARK  140  A    between atoms: _344  and  _346
REMARK  141  A    between atoms: _346  and  _347
REMARK  142  A    between atoms: _346  and  _349
REMARK  143  A    between atoms: _349  and  _350
REMARK  144  A    between atoms: _353  and  _355
REMARK  145  A    between atoms: _355  and  _356
REMARK  146  A    between atoms: _355  and  _358
REMARK  147  A    between atoms: _358  and  _359
REMARK  148  A    between atoms: _362  and  _364
REMARK  149  A    between atoms: _364  and  _365
REMARK  150  A    between atoms: _364  and  _367
REMARK  151  A    between atoms: _370  and  _372
REMARK  152  A    between atoms: _372  and  _373
REMARK  153  A    between atoms: _372  and  _375
REMARK  154  A    between atoms: _375  and  _376
REMARK  155  A    between atoms: _376  and  _377
REMARK  156  A    between atoms: _377  and  _378
REMARK  157  A    between atoms: _378  and  _379
REMARK  158  A    between atoms: _383  and  _385
REMARK  159  A    between atoms: _385  and  _386
REMARK  160  A    between atoms: _385  and  _388
REMARK  161  A    between atoms: _388  and  _389
REMARK  162  A    between atoms: _389  and  _390
REMARK  163  A    between atoms: _392  and  _394
REMARK  164  A    between atoms: _394  and  _395
REMARK  165  A    between atoms: _394  and  _397
REMARK  166  A    between atoms: _397  and  _398
REMARK  167  A    between atoms: _401  and  _403
REMARK  168  A    between atoms: _403  and  _404
REMARK  169  A    between atoms: _406  and  _408
REMARK  170  A    between atoms: _408  and  _409
REMARK  171  A    between atoms: _411  and  _413
REMARK  172  A    between atoms: _413  and  _414
REMARK  173  A    between atoms: _413  and  _416
REMARK  174  A    between atoms: _416  and  _417
REMARK  175  A    between atoms: _420  and  _422
REMARK  176  A    between atoms: _422  and  _423
REMARK  177  A    between atoms: _425  and  _427
REMARK  178  A    between atoms: _427  and  _428
REMARK  179  A    between atoms: _430  and  _432
REMARK  180  A    between atoms: _432  and  _433
REMARK  181  A    between atoms: _432  and  _435
REMARK  182  A    between atoms: _435  and  _436
REMARK  183  A    between atoms: _442  and  _444
REMARK  184  A    between atoms: _444  and  _445
REMARK  185  A    between atoms: _444  and  _447
REMARK  186  A    between atoms: _447  and  _448
REMARK  187  A    between atoms: _451  and  _453
REMARK  188  A    between atoms: _453  and  _454
REMARK  189  A    between atoms: _453  and  _456
REMARK  190  A    between atoms: _459  and  _461
REMARK  191  A    between atoms: _461  and  _462
REMARK  192  A    between atoms: _461  and  _464
REMARK  193  A    between atoms: _464  and  _465
REMARK  194  A    between atoms: _468  and  _470
REMARK  195  A    between atoms: _470  and  _471
REMARK  196  A    between atoms: _470  and  _473
REMARK  197  A    between atoms: _473  and  _474
REMARK  198  A    between atoms: _478  and  _479
REMARK  199  A    between atoms: _484  and  _486
REMARK  200  A    between atoms: _486  and  _487
REMARK  201  A    between atoms: _486  and  _489
REMARK  202  A    between atoms: _492  and  _494
REMARK  203  A    between atoms: _494  and  _495
REMARK  204  A    between atoms: _494  and  _497
REMARK  205  A    between atoms: _497  and  _498
REMARK  206  A    between atoms: _503  and  _505
REMARK  207  A    between atoms: _505  and  _506
REMARK  208  A    between atoms: _505  and  _508
REMARK  209  A    between atoms: _508  and  _509
REMARK  210  A    between atoms: _512  and  _514
REMARK  211  A    between atoms: _514  and  _515
REMARK  212  A    between atoms: _514  and  _517
REMARK  213  A    between atoms: _517  and  _518
REMARK  214  A    between atoms: _521  and  _523
REMARK  215  A    between atoms: _523  and  _524
REMARK  216  A    between atoms: _526  and  _528
REMARK  217  A    between atoms: _528  and  _529
REMARK  218  A    between atoms: _528  and  _531
REMARK  219  A    between atoms: _531  and  _532
REMARK  220  A    between atoms: _532  and  _533
REMARK  221  A    between atoms: _533  and  _534
REMARK                            x       y       z     vdW  Elec       q    Type
REMARK                         _______ _______ _______ _____ _____    ______ ____
ROOT
ATOM      1  C   GLY A   5       5.607  -1.915  20.447  0.00  0.00    +0.243 C 
ATOM      2  N   ALA A   6       6.885  -1.669  20.690  0.00  0.00    -0.297 N 
ATOM      3  H   ALA A   6       7.150  -0.826  21.239  0.00  0.00    +0.150 HD
ATOM      4  O   GLY A   5       5.257  -2.895  19.803  0.00  0.00    -0.273 OA
ENDROOT
BRANCH   2   5
ATOM      5  CA  ALA A   6       7.932  -2.569  20.196  0.00  0.00    +0.149 C 
ATOM      6  CB  ALA A   6       9.034  -1.766  19.481  0.00  0.00    +0.031 C 
BRANCH   5   7
ATOM      7  C   ALA A   6       8.541  -3.399  21.329  0.00  0.00    +0.241 C 
ATOM      8  O   ALA A   6       9.039  -2.848  22.301  0.00  0.00    -0.273 OA
ATOM      9  N   ASP A   7       8.462  -4.720  21.216  0.00  0.00    -0.297 N 
ATOM     10  H   ASP A   7       7.971  -5.131  20.397  0.00  0.00    +0.150 HD
BRANCH   9  11
ATOM     11  CA  ASP A   7       9.054  -5.617  22.225  0.00  0.00    +0.160 C 
BRANCH  11  12
ATOM     12  C   ASP A   7      10.573  -5.490  22.249  0.00  0.00    +0.241 C 
ATOM     13  O   ASP A   7      11.193  -5.577  23.315  0.00  0.00    -0.273 OA
ATOM     14  N   ASP A   8      11.150  -5.281  21.060  0.00  0.00    -0.297 N 
ATOM     15  H   ASP A   8      10.526  -5.162  20.236  0.00  0.00    +0.150 HD
BRANCH  14  16
ATOM     16  CA  ASP A   8      12.608  -5.207  20.830  0.00  0.00    +0.160 C 
BRANCH  16  17
ATOM     17  C   ASP A   8      13.081  -3.892  20.225  0.00  0.00    +0.241 C 
ATOM     18  N   THR A   9      14.392  -3.719  20.196  0.00  0.00    -0.295 N 
ATOM     19  H   THR A   9      14.999  -4.455  20.610  0.00  0.00    +0.150 HD
ATOM     20  O   ASP A   8      12.283  -3.083  19.752  0.00  0.00    -0.273 OA
BRANCH  18  21
ATOM     21  CA  THR A   9      15.028  -2.540  19.609  0.00  0.00    +0.176 C 
BRANCH  21  22
ATOM     22  C   THR A   9      15.593  -2.966  18.256  0.00  0.00    +0.243 C 
ATOM     23  O   THR A   9      16.334  -3.930  18.180  0.00  0.00    -0.273 OA
ATOM     24  N   VAL A  10      15.225  -2.253  17.195  0.00  0.00    -0.298 N 
ATOM     25  H   VAL A  10      14.599  -1.435  17.335  0.00  0.00    +0.150 HD
BRANCH  24  26
ATOM     26  CA  VAL A  10      15.670  -2.578  15.829  0.00  0.00    +0.137 C 
BRANCH  26  27
ATOM     27  CB  VAL A  10      14.468  -2.973  14.893  0.00  0.00    +0.026 C 
ATOM     28  CG2 VAL A  10      13.553  -3.927  15.620  0.00  0.00    +0.002 C 
ATOM     29  CG1 VAL A  10      15.002  -3.641  13.592  0.00  0.00    +0.002 C 
ENDBRANCH  26  27
BRANCH  26  30
ATOM     30  C   VAL A  10      16.404  -1.405  15.224  0.00  0.00    +0.227 C 
ATOM     31  O   VAL A  10      15.850  -0.330  15.068  0.00  0.00    -0.286 OA
ENDBRANCH  26  30
ENDBRANCH  24  26
ENDBRANCH  21  22
BRANCH  21  32
ATOM     32  CB  THR A   9      16.144  -2.063  20.538  0.00  0.00    +0.137 C 
ATOM     33  CG2 THR A   9      17.058  -1.018  19.871  0.00  0.00    +0.034 C 
BRANCH  32  34
ATOM     34  OG1 THR A   9      15.542  -1.525  21.716  0.00  0.00    -0.382 OA
ATOM     35  HG1 THR A   9      15.004  -2.227  22.161  0.00  0.00    +0.210 HD
ENDBRANCH  32  34
ENDBRANCH  21  32
ENDBRANCH  18  21
ENDBRANCH  16  17
BRANCH  16  36
ATOM     36  CB  ASP A   8      13.003  -6.322  19.843  0.00  0.00    +0.143 C 
BRANCH  36  37
ATOM     37  CG  ASP A   8      12.607  -7.710  20.327  0.00  0.00    +0.367 C 
ATOM     38  OD2 ASP A   8      13.189  -8.183  21.329  0.00  0.00    -0.246 OA
ATOM     39  OD1 ASP A   8      11.719  -8.330  19.703  0.00  0.00    -0.246 OA
ENDBRANCH  36  37
ENDBRANCH  16  36
ENDBRANCH  14  16
ENDBRANCH  11  12
BRANCH  11  40
ATOM     40  CB  ASP A   7       8.766  -7.078  21.876  0.00  0.00    +0.143 C 
BRANCH  40  41
ATOM     41  CG  ASP A   7       7.335  -7.487  22.118  0.00  0.00    +0.367 C 
ATOM     42  OD2 ASP A   7       6.552  -6.729  22.732  0.00  0.00    -0.246 OA
ATOM     43  OD1 ASP A   7       7.001  -8.615  21.700  0.00  0.00    -0.246 OA
ENDBRANCH  40  41
ENDBRANCH  11  40
ENDBRANCH   9  11
ENDBRANCH   5   7
ENDBRANCH   2   5
BRANCH   1  44
ATOM     44  CA  GLY A   5       4.580  -0.923  20.991  0.00  0.00    +0.176 C 
BRANCH  44  47
ATOM     45  C   THR A   4       5.491   0.329  22.853  0.00  0.00    +0.243 C 
ATOM     46  O   THR A   4       5.211  -0.596  23.617  0.00  0.00    -0.273 OA
ATOM     47  N   GLY A   5       5.212   0.263  21.557  0.00  0.00    -0.295 N 
ATOM     48  H   GLY A   5       5.447   1.066  20.939  0.00  0.00    +0.150 HD
BRANCH  45  49
ATOM     49  CA  THR A   4       6.181   1.614  23.352  0.00  0.00    +0.176 C 
BRANCH  49  51
ATOM     50  C   ASP A   3       7.807   1.944  21.520  0.00  0.00    +0.241 C 
ATOM     51  N   THR A   4       6.756   2.370  22.224  0.00  0.00    -0.295 N 
ATOM     52  H   THR A   4       6.322   3.279  21.965  0.00  0.00    +0.150 HD
ATOM     53  O   ASP A   3       8.386   0.870  21.740  0.00  0.00    -0.273 OA
BRANCH  50  54
ATOM     54  CA  ASP A   3       8.240   2.845  20.351  0.00  0.00    +0.160 C 
BRANCH  54  56
ATOM     55  C   LEU A   2       9.363   4.996  20.600  0.00  0.00    +0.241 C 
ATOM     56  N   ASP A   3       9.413   3.671  20.645  0.00  0.00    -0.297 N 
ATOM     57  H   ASP A   3      10.309   3.207  20.896  0.00  0.00    +0.150 HD
ATOM     58  O   LEU A   2       8.306   5.643  20.413  0.00  0.00    -0.273 OA
BRANCH  55  59
ATOM     59  CA  LEU A   2      10.687   5.703  20.849  0.00  0.00    +0.149 C 
BRANCH  59  61
ATOM     60  C   LEU A   1      11.583   5.666  18.582  0.00  0.00    +0.238 C 
ATOM     61  N   LEU A   2      10.986   6.336  19.559  0.00  0.00    -0.297 N 
ATOM     62  H   LEU A   2      10.724   7.331  19.408  0.00  0.00    +0.150 HD
ATOM     63  O   LEU A   1      12.006   4.523  18.726  0.00  0.00    -0.274 OA
BRANCH  60  64
ATOM     64  CA  LEU A   1      11.796   6.405  17.279  0.00  0.00    +0.145 C 
BRANCH  64  65
ATOM     65  N   LEU A   1      13.178   6.258  16.839  0.00  0.00    -0.238 NA
ATOM     66  H   LEU A   1      13.418   5.434  16.251  0.00  0.00    +0.142 HD
ENDBRANCH  64  65
BRANCH  64  67
ATOM     67  CB  LEU A   1      10.894   5.819  16.182  0.00  0.00    +0.026 C 
BRANCH  67  68
ATOM     68  CG  LEU A   1       9.385   5.940  16.227  0.00  0.00    +0.002 C 
ATOM     69  CD2 LEU A   1       8.949   7.371  16.065  0.00  0.00    +0.000 C 
ATOM     70  CD1 LEU A   1       8.856   5.109  15.075  0.00  0.00    +0.000 C 
ENDBRANCH  67  68
ENDBRANCH  64  67
ENDBRANCH  60  64
ENDBRANCH  59  61
BRANCH  59  71
ATOM     71  CB  LEU A   2      10.533   6.767  21.934  0.00  0.00    +0.029 C 
BRANCH  71  72
ATOM     72  CG  LEU A   2      11.766   7.155  22.758  0.00  0.00    +0.002 C 
ATOM     73  CD2 LEU A   2      11.687   8.614  23.198  0.00  0.00    +0.000 C 
ATOM     74  CD1 LEU A   2      13.057   6.814  22.062  0.00  0.00    +0.000 C 
ENDBRANCH  71  72
ENDBRANCH  59  71
ENDBRANCH  55  59
ENDBRANCH  54  56
BRANCH  54  75
ATOM     75  CB  ASP A   3       8.594   2.016  19.105  0.00  0.00    +0.143 C 
BRANCH  75  76
ATOM     76  CG  ASP A   3       7.434   1.204  18.554  0.00  0.00    +0.367 C 
ATOM     77  OD2 ASP A   3       6.302   1.241  19.088  0.00  0.00    -0.246 OA
ATOM     78  OD1 ASP A   3       7.682   0.506  17.555  0.00  0.00    -0.246 OA
ENDBRANCH  75  76
ENDBRANCH  54  75
ENDBRANCH  50  54
ENDBRANCH  49  51
BRANCH  49  79
ATOM     79  CB  THR A   4       5.161   2.481  24.103  0.00  0.00    +0.137 C 
ATOM     80  CG2 THR A   4       5.805   3.670  24.691  0.00  0.00    +0.034 C 
BRANCH  79  81
ATOM     81  OG1 THR A   4       4.184   2.963  23.189  0.00  0.00    -0.382 OA
ATOM     82  HG1 THR A   4       3.720   2.196  22.769  0.00  0.00    +0.210 HD
ENDBRANCH  79  81
ENDBRANCH  49  79
ENDBRANCH  45  49
ENDBRANCH  44  47
ENDBRANCH   1  44
TORSDOF 35
REMARK  Name = ../refined-set-2016/1mtr/1mtr_pocket.pdb
REMARK  221 active torsions:
REMARK  status: ('A' for Active; 'I' for Inactive)
REMARK    1  A    between atoms: _1  and  _3
REMARK    2  A    between atoms: _3  and  _4
REMARK    3  A    between atoms: _3  and  _6
REMARK    4  A    between atoms: _6  and  _7
REMARK    5  A    between atoms: _7  and  _8
REMARK    6  A    between atoms: _8  and  _9
REMARK    7  A    between atoms: _18  and  _20
REMARK    8  A    between atoms: _20  and  _21
REMARK    9  A    between atoms: _20  and  _23
REMARK   10  A    between atoms: _23  and  _24
REMARK   11  A    between atoms: _27  and  _29
REMARK   12  A    between atoms: _29  and  _30
REMARK   13  A    between atoms: _29  and  _32
REMARK   14  A    between atoms: _32  and  _33
REMARK   15  A    between atoms: _36  and  _38
REMARK   16  A    between atoms: _38  and  _39
REMARK   17  A    between atoms: _38  and  _41
REMARK   18  A    between atoms: _41  and  _42
REMARK   19  A    between atoms: _45  and  _47
REMARK   20  A    between atoms: _47  and  _48
REMARK   21  A    between atoms: _47  and  _50
REMARK   22  A    between atoms: _50  and  _51
REMARK   23  A    between atoms: _54  and  _56
REMARK   24  A    between atoms: _56  and  _57
REMARK   25  A    between atoms: _59  and  _61
REMARK   26  A    between atoms: _61  and  _62
REMARK   27  A    between atoms: _65  and  _67
REMARK   28  A    between atoms: _67  and  _68
REMARK   29  A    between atoms: _67  and  _70
REMARK   30  A    between atoms: _70  and  _71
REMARK   31  A    between atoms: _74  and  _76
REMARK   32  A    between atoms: _76  and  _77
REMARK   33  A    between atoms: _76  and  _79
REMARK   34  A    between atoms: _79  and  _80
REMARK   35  A    between atoms: _83  and  _85
REMARK   36  A    between atoms: _85  and  _86
REMARK   37  A    between atoms: _85  and  _88
REMARK   38  A    between atoms: _88  and  _89
REMARK   39  A    between atoms: _92  and  _94
REMARK   40  A    between atoms: _94  and  _95
REMARK   41  A    between atoms: _94  and  _97
REMARK   42  A    between atoms: _100  and  _102
REMARK   43  A    between atoms: _102  and  _103
REMARK   44  A    between atoms: _102  and  _105
REMARK   45  A    between atoms: _105  and  _106
REMARK   46  A    between atoms: _106  and  _107
REMARK   47  A    between atoms: _109  and  _111
REMARK   48  A    between atoms: _111  and  _112
REMARK   49  A    between atoms: _111  and  _114
REMARK   50  A    between atoms: _114  and  _115
REMARK   51  A    between atoms: _118  and  _120
REMARK   52  A    between atoms: _120  and  _121
REMARK   53  A    between atoms: _123  and  _125
REMARK   54  A    between atoms: _125  and  _126
REMARK   55  A    between atoms: _128  and  _130
REMARK   56  A    between atoms: _130  and  _131
REMARK   57  A    between atoms: _130  and  _133
REMARK   58  A    between atoms: _133  and  _134
REMARK   59  A    between atoms: _137  and  _139
REMARK   60  A    between atoms: _139  and  _140
REMARK   61  A    between atoms: _142  and  _144
REMARK   62  A    between atoms: _144  and  _145
REMARK   63  A    between atoms: _147  and  _149
REMARK   64  A    between atoms: _149  and  _150
REMARK   65  A    between atoms: _149  and  _152
REMARK   66  A    between atoms: _152  and  _153
REMARK   67  A    between atoms: _159  and  _161
REMARK   68  A    between atoms: _161  and  _162
REMARK   69  A    between atoms: _161  and  _164
REMARK   70  A    between atoms: _164  and  _165
REMARK   71  A    between atoms: _168  and  _170
REMARK   72  A    between atoms: _170  and  _171
REMARK   73  A    between atoms: _170  and  _173
REMARK   74  A    between atoms: _176  and  _178
REMARK   75  A    between atoms: _178  and  _179
REMARK   76  A    between atoms: _178  and  _181
REMARK   77  A    between atoms: _181  and  _182
REMARK   78  A    between atoms: _185  and  _187
REMARK   79  A    between atoms: _187  and  _188
REMARK   80  A    between atoms: _187  and  _190
REMARK   81  A    between atoms: _190  and  _191
REMARK   82  A    between atoms: _195  and  _196
REMARK   83  A    between atoms: _201  and  _203
REMARK   84  A    between atoms: _203  and  _204
REMARK   85  A    between atoms: _203  and  _206
REMARK   86  A    between atoms: _209  and  _211
REMARK   87  A    between atoms: _211  and  _212
REMARK   88  A    between atoms: _211  and  _214
REMARK   89  A    between atoms: _214  and  _215
REMARK   90  A    between atoms: _220  and  _222
REMARK   91  A    between atoms: _222  and  _223
REMARK   92  A    between atoms: _222  and  _225
REMARK   93  A    between atoms: _225  and  _226
REMARK   94  A    between atoms: _229  and  _231
REMARK   95  A    between atoms: _231  and  _232
REMARK   96  A    between atoms: _231  and  _234
REMARK   97  A    between atoms: _234  and  _235
REMARK   98  A    between atoms: _238  and  _240
REMARK   99  A    between atoms: _240  and  _241
REMARK  100  A    between atoms: _243  and  _245
REMARK  101  A    between atoms: _245  and  _246
REMARK  102  A    between atoms: _245  and  _248
REMARK  103  A    between atoms: _248  and  _249
REMARK  104  A    between atoms: _249  and  _250
REMARK  105  A    between atoms: _250  and  _251
REMARK  106  A    between atoms: _260  and  _262
REMARK  107  A    between atoms: _262  and  _263
REMARK  108  A    between atoms: _262  and  _265
REMARK  109  A    between atoms: _265  and  _266
REMARK  110  A    between atoms: _271  and  _273
REMARK  111  A    between atoms: _273  and  _274
REMARK  112  A    between atoms: _273  and  _276
REMARK  113  A    between atoms: _276  and  _277
REMARK  114  A    between atoms: _277  and  _278
REMARK  115  A    between atoms: _278  and  _279
REMARK  116  A    between atoms: _288  and  _290
REMARK  117  A    between atoms: _290  and  _291
REMARK  118  A    between atoms: _290  and  _293
REMARK  119  A    between atoms: _293  and  _294
REMARK  120  A    between atoms: _297  and  _299
REMARK  121  A    between atoms: _299  and  _300
REMARK  122  A    between atoms: _299  and  _302
REMARK  123  A    between atoms: _302  and  _303
REMARK  124  A    between atoms: _306  and  _308
REMARK  125  A    between atoms: _308  and  _309
REMARK  126  A    between atoms: _308  and  _311
REMARK  127  A    between atoms: _311  and  _312
REMARK  128  A    between atoms: _315  and  _317
REMARK  129  A    between atoms: _317  and  _318
REMARK  130  A    between atoms: _317  and  _320
REMARK  131  A    between atoms: _320  and  _321
REMARK  132  A    between atoms: _324  and  _326
REMARK  133  A    between atoms: _326  and  _327
REMARK  134  A    between atoms: _329  and  _331
REMARK  135  A    between atoms: _331  and  _332
REMARK  136  A    between atoms: _335  and  _337
REMARK  137  A    between atoms: _337  and  _338
REMARK  138  A    between atoms: _337  and  _340
REMARK  139  A    between atoms: _340  and  _341
REMARK  140  A    between atoms: _344  and  _346
REMARK  141  A    between atoms: _346  and  _347
REMARK  142  A    between atoms: _346  and  _349
REMARK  143  A    between atoms: _349  and  _350
REMARK  144  A    between atoms: _353  and  _355
REMARK  145  A    between atoms: _355  and  _356
REMARK  146  A    between atoms: _355  and  _358
REMARK  147  A    between atoms: _358  and  _359
REMARK  148  A    between atoms: _362  and  _364
REMARK  149  A    between atoms: _364  and  _365
REMARK  150  A    between atoms: _364  and  _367
REMARK  151  A    between atoms: _370  and  _372
REMARK  152  A    between atoms: _372  and  _373
REMARK  153  A    between atoms: _372  and  _375
REMARK  154  A    between atoms: _375  and  _376
REMARK  155  A    between atoms: _376  and  _377
REMARK  156  A    between atoms: _377  and  _378
REMARK  157  A    between atoms: _378  and  _379
REMARK  158  A    between atoms: _383  and  _385
REMARK  159  A    between atoms: _385  and  _386
REMARK  160  A    between atoms: _385  and  _388
REMARK  161  A    between atoms: _388  and  _389
REMARK  162  A    between atoms: _389  and  _390
REMARK  163  A    between atoms: _392  and  _394
REMARK  164  A    between atoms: _394  and  _395
REMARK  165  A    between atoms: _394  and  _397
REMARK  166  A    between atoms: _397  and  _398
REMARK  167  A    between atoms: _401  and  _403
REMARK  168  A    between atoms: _403  and  _404
REMARK  169  A    between atoms: _406  and  _408
REMARK  170  A    between atoms: _408  and  _409
REMARK  171  A    between atoms: _411  and  _413
REMARK  172  A    between atoms: _413  and  _414
REMARK  173  A    between atoms: _413  and  _416
REMARK  174  A    between atoms: _416  and  _417
REMARK  175  A    between atoms: _420  and  _422
REMARK  176  A    between atoms: _422  and  _423
REMARK  177  A    between atoms: _425  and  _427
REMARK  178  A    between atoms: _427  and  _428
REMARK  179  A    between atoms: _430  and  _432
REMARK  180  A    between atoms: _432  and  _433
REMARK  181  A    between atoms: _432  and  _435
REMARK  182  A    between atoms: _435  and  _436
REMARK  183  A    between atoms: _442  and  _444
REMARK  184  A    between atoms: _444  and  _445
REMARK  185  A    between atoms: _444  and  _447
REMARK  186  A    between atoms: _447  and  _448
REMARK  187  A    between atoms: _451  and  _453
REMARK  188  A    between atoms: _453  and  _454
REMARK  189  A    between atoms: _453  and  _456
REMARK  190  A    between atoms: _459  and  _461
REMARK  191  A    between atoms: _461  and  _462
REMARK  192  A    between atoms: _461  and  _464
REMARK  193  A    between atoms: _464  and  _465
REMARK  194  A    between atoms: _468  and  _470
REMARK  195  A    between atoms: _470  and  _471
REMARK  196  A    between atoms: _470  and  _473
REMARK  197  A    between atoms: _473  and  _474
REMARK  198  A    between atoms: _478  and  _479
REMARK  199  A    between atoms: _484  and  _486
REMARK  200  A    between atoms: _486  and  _487
REMARK  201  A    between atoms: _486  and  _489
REMARK  202  A    between atoms: _492  and  _494
REMARK  203  A    between atoms: _494  and  _495
REMARK  204  A    between atoms: _494  and  _497
REMARK  205  A    between atoms: _497  and  _498
REMARK  206  A    between atoms: _503  and  _505
REMARK  207  A    between atoms: _505  and  _506
REMARK  208  A    between atoms: _505  and  _508
REMARK  209  A    between atoms: _508  and  _509
REMARK  210  A    between atoms: _512  and  _514
REMARK  211  A    between atoms: _514  and  _515
REMARK  212  A    between atoms: _514  and  _517
REMARK  213  A    between atoms: _517  and  _518
REMARK  214  A    between atoms: _521  and  _523
REMARK  215  A    between atoms: _523  and  _524
REMARK  216  A    between atoms: _526  and  _528
REMARK  217  A    between atoms: _528  and  _529
REMARK  218  A    between atoms: _528  and  _531
REMARK  219  A    between atoms: _531  and  _532
REMARK  220  A    between atoms: _532  and  _533
REMARK  221  A    between atoms: _533  and  _534
REMARK                            x       y       z     vdW  Elec       q    Type
REMARK                         _______ _______ _______ _____ _____    ______ ____
ROOT
ATOM      1  C   GLY A   5       4.361  -6.277  11.827  0.00  0.00    +0.243 C 
ATOM      2  N   ILE A   6       3.758  -5.127  11.545  0.00  0.00    -0.297 N 
ATOM      3  H   ILE A   6       4.127  -4.246  11.956  0.00  0.00    +0.150 HD
ATOM      4  O   GLY A   5       3.976  -7.351  11.380  0.00  0.00    -0.273 OA
ENDROOT
BRANCH   2   5
ATOM      5  CA  ILE A   6       2.585  -5.072  10.669  0.00  0.00    +0.149 C 
BRANCH   5   6
ATOM      6  C   ILE A   6       3.135  -5.341   9.258  0.00  0.00    +0.241 C 
ATOM      7  O   ILE A   6       4.175  -4.789   8.872  0.00  0.00    -0.273 OA
ATOM      8  N   GLY A   7       2.494  -6.263   8.545  0.00  0.00    -0.295 N 
ATOM      9  H   GLY A   7       1.666  -6.745   8.950  0.00  0.00    +0.150 HD
BRANCH   8  10
ATOM     10  CA  GLY A   7       2.937  -6.601   7.214  0.00  0.00    +0.176 C 
BRANCH  10  11
ATOM     11  C   GLY A   7       3.641  -7.939   7.172  0.00  0.00    +0.243 C 
ATOM     12  N   GLY A   8       4.447  -8.245   8.182  0.00  0.00    -0.295 N 
ATOM     13  H   GLY A   8       4.574  -7.591   8.980  0.00  0.00    +0.150 HD
ATOM     14  O   GLY A   7       3.431  -8.713   6.244  0.00  0.00    -0.273 OA
BRANCH  12  15
ATOM     15  CA  GLY A   8       5.140  -9.507   8.143  0.00  0.00    +0.176 C 
BRANCH  15  16
ATOM     16  C   GLY A   8       6.390  -9.540   8.987  0.00  0.00    +0.243 C 
ATOM     17  O   GLY A   8       6.556  -8.741   9.921  0.00  0.00    -0.273 OA
ATOM     18  N   PHE A   9       7.280 -10.472   8.642  0.00  0.00    -0.297 N 
ATOM     19  H   PHE A   9       7.066 -11.081   7.826  0.00  0.00    +0.150 HD
BRANCH  18  20
ATOM     20  CA  PHE A   9       8.551 -10.683   9.358  0.00  0.00    +0.153 C 
BRANCH  20  21
ATOM     21  C   PHE A   9       9.759 -10.271   8.529  0.00  0.00    +0.241 C 
ATOM     22  N   ILE A  10      10.835  -9.892   9.209  0.00  0.00    -0.298 N 
ATOM     23  H   ILE A  10      10.780  -9.842  10.246  0.00  0.00    +0.150 HD
ATOM     24  O   PHE A   9       9.708 -10.275   7.307  0.00  0.00    -0.273 OA
BRANCH  22  25
ATOM     25  CA  ILE A  10      12.090  -9.543   8.554  0.00  0.00    +0.137 C 
BRANCH  25  26
ATOM     26  C   ILE A  10      13.173 -10.270   9.328  0.00  0.00    +0.227 C 
ATOM     27  O   ILE A  10      12.978 -10.607  10.509  0.00  0.00    -0.286 OA
ENDBRANCH  25  26
BRANCH  25  28
ATOM     28  CB  ILE A  10      12.368  -8.029   8.547  0.00  0.00    +0.026 C 
ATOM     29  CG2 ILE A  10      11.334  -7.301   7.686  0.00  0.00    +0.002 C 
BRANCH  28  30
ATOM     30  CG1 ILE A  10      12.427  -7.479   9.962  0.00  0.00    +0.002 C 
ATOM     31  CD1 ILE A  10      13.156  -6.137  10.040  0.00  0.00    +0.000 C 
ENDBRANCH  28  30
ENDBRANCH  25  28
ENDBRANCH  22  25
ENDBRANCH  20  21
BRANCH  20  32
ATOM     32  CB  PHE A   9       8.723 -12.165   9.736  0.00  0.00    +0.055 C 
BRANCH  32  33
ATOM     33  CG  PHE A   9       7.815 -12.634  10.830  0.00  0.00    -0.020 A 
ATOM     34  CD2 PHE A   9       8.303 -12.803  12.112  0.00  0.00    -0.004 A 
ATOM     35  CE2 PHE A   9       7.462 -13.208  13.148  0.00  0.00    -0.000 A 
ATOM     36  CZ  PHE A   9       6.137 -13.438  12.889  0.00  0.00    -0.000 A 
ATOM     37  CE1 PHE A   9       5.642 -13.272  11.601  0.00  0.00    -0.000 A 
ATOM     38  CD1 PHE A   9       6.473 -12.874  10.588  0.00  0.00    -0.004 A 
ENDBRANCH  32  33
ENDBRANCH  20  32
ENDBRANCH  18  20
ENDBRANCH  15  16
ENDBRANCH  12  15
ENDBRANCH  10  11
ENDBRANCH   8  10
ENDBRANCH   5   6
BRANCH   5  39
ATOM     39  CB  ILE A   6       1.844  -3.694  10.777  0.00  0.00    +0.027 C 
ATOM     40  CG2 ILE A   6       1.345  -3.226   9.420  0.00  0.00    +0.002 C 
BRANCH  39  41
ATOM     41  CG1 ILE A   6       0.614  -3.832  11.684  0.00  0.00    +0.002 C 
ATOM     42  CD1 ILE A   6       0.889  -4.406  13.034  0.00  0.00    +0.000 C 
ENDBRANCH  39  41
ENDBRANCH   5  39
ENDBRANCH   2   5
BRANCH   1  43
ATOM     43  CA  GLY A   5       5.604  -6.214  12.681  0.00  0.00    +0.176 C 
BRANCH  43  46
ATOM     44  C   GLY A   4       6.838  -8.155  13.349  0.00  0.00    +0.243 C 
ATOM     45  O   GLY A   4       6.940  -7.742  14.497  0.00  0.00    -0.273 OA
ATOM     46  N   GLY A   5       6.231  -7.485  12.407  0.00  0.00    -0.295 N 
ATOM     47  H   GLY A   5       6.199  -7.874  11.443  0.00  0.00    +0.150 HD
BRANCH  44  48
ATOM     48  CA  GLY A   4       7.383  -9.480  12.917  0.00  0.00    +0.176 C 
BRANCH  48  50
ATOM     49  C   ILE A   3       9.707  -9.926  13.220  0.00  0.00    +0.241 C 
ATOM     50  N   GLY A   4       8.494  -9.866  13.745  0.00  0.00    -0.295 N 
ATOM     51  H   GLY A   4       8.345 -10.096  14.748  0.00  0.00    +0.150 HD
ATOM     52  O   ILE A   3       9.931  -9.713  12.033  0.00  0.00    -0.273 OA
BRANCH  49  53
ATOM     53  CA  ILE A   3      10.824 -10.359  14.144  0.00  0.00    +0.149 C 
BRANCH  53  56
ATOM     54  C   MET A   2      12.110 -12.365  13.641  0.00  0.00    +0.241 C 
ATOM     55  O   MET A   2      11.773 -12.902  14.699  0.00  0.00    -0.273 OA
ATOM     56  N   ILE A   3      11.759 -11.123  13.307  0.00  0.00    -0.297 N 
ATOM     57  H   ILE A   3      12.151 -10.691  12.446  0.00  0.00    +0.150 HD
BRANCH  54  58
ATOM     58  CA  MET A   2      13.037 -13.087  12.695  0.00  0.00    +0.149 C 
BRANCH  58  60
ATOM     59  C   LYS A   1      15.355 -13.375  13.371  0.00  0.00    +0.238 C 
ATOM     60  N   MET A   2      14.083 -13.722  13.493  0.00  0.00    -0.297 N 
ATOM     61  H   MET A   2      13.822 -14.464  14.173  0.00  0.00    +0.150 HD
ATOM     62  O   LYS A   1      15.762 -12.578  12.514  0.00  0.00    -0.274 OA
BRANCH  59  63
ATOM     63  CA  LYS A   1      16.319 -14.145  14.266  0.00  0.00    +0.145 C 
BRANCH  63  64
ATOM     64  N   LYS A   1      17.684 -14.110  13.773  0.00  0.00    -0.238 NA
ATOM     65  H   LYS A   1      17.973 -13.385  13.085  0.00  0.00    +0.142 HD
ENDBRANCH  63  64
BRANCH  63  66
ATOM     66  CB  LYS A   1      16.223 -13.774  15.758  0.00  0.00    +0.026 C 
BRANCH  66  67
ATOM     67  CG  LYS A   1      16.246 -12.342  16.107  0.00  0.00    -0.000 C 
BRANCH  67  68
ATOM     68  CD  LYS A   1      15.049 -11.992  17.008  0.00  0.00    -0.024 C 
BRANCH  68  69
ATOM     69  CE  LYS A   1      15.189 -12.443  18.455  0.00  0.00    -0.086 C 
BRANCH  69  70
ATOM     70  NZ  LYS A   1      14.028 -12.042  19.271  0.00  0.00    +0.380 N 
ATOM     71  HZ1 LYS A   1      14.164 -12.369  20.249  0.00  0.00    -0.089 HD
ATOM     72  HZ2 LYS A   1      13.939 -11.006  19.259  0.00  0.00    -0.089 HD
ATOM     73  HZ3 LYS A   1      13.165 -12.470  18.878  0.00  0.00    -0.089 HD
ENDBRANCH  69  70
ENDBRANCH  68  69
ENDBRANCH  67  68
ENDBRANCH  66  67
ENDBRANCH  63  66
ENDBRANCH  59  63
ENDBRANCH  58  60
BRANCH  58  74
ATOM     74  CB  MET A   2      12.339 -14.116  11.802  0.00  0.00    +0.041 C 
BRANCH  74  75
ATOM     75  CG  MET A   2      13.303 -14.637  10.724  0.00  0.00    +0.060 C 
BRANCH  75  76
ATOM     76  SD  MET A   2      12.617 -15.841   9.601  0.00  0.00    -0.139 S 
ATOM     77  CE  MET A   2      14.064 -16.462   8.855  0.00  0.00    +0.069 C 
ENDBRANCH  75  76
ENDBRANCH  74  75
ENDBRANCH  58  74
ENDBRANCH  54  58
ENDBRANCH  53  56
BRANCH  53  78
ATOM     78  CB  ILE A   3      11.472  -9.119  14.800  0.00  0.00    +0.027 C 
ATOM     79  CG2 ILE A   3      12.448  -9.552  15.863  0.00  0.00    +0.002 C 
BRANCH  78  80
ATOM     80  CG1 ILE A   3      12.116  -8.236  13.726  0.00  0.00    +0.002 C 
ATOM     81  CD1 ILE A   3      12.398  -6.860  14.176  0.00  0.00    +0.000 C 
ENDBRANCH  78  80
ENDBRANCH  53  78
ENDBRANCH  49  53
ENDBRANCH  48  50
ENDBRANCH  44  48
ENDBRANCH  43  46
ENDBRANCH   1  43
TORSDOF 36
REMARK  Name = ../refined-set-2016/1mtr/1mtr_pocket.pdb
REMARK  221 active torsions:
REMARK  status: ('A' for Active; 'I' for Inactive)
REMARK    1  A    between atoms: _1  and  _3
REMARK    2  A    between atoms: _3  and  _4
REMARK    3  A    between atoms: _3  and  _6
REMARK    4  A    between atoms: _6  and  _7
REMARK    5  A    between atoms: _7  and  _8
REMARK    6  A    between atoms: _8  and  _9
REMARK    7  A    between atoms: _18  and  _20
REMARK    8  A    between atoms: _20  and  _21
REMARK    9  A    between atoms: _20  and  _23
REMARK   10  A    between atoms: _23  and  _24
REMARK   11  A    between atoms: _27  and  _29
REMARK   12  A    between atoms: _29  and  _30
REMARK   13  A    between atoms: _29  and  _32
REMARK   14  A    between atoms: _32  and  _33
REMARK   15  A    between atoms: _36  and  _38
REMARK   16  A    between atoms: _38  and  _39
REMARK   17  A    between atoms: _38  and  _41
REMARK   18  A    between atoms: _41  and  _42
REMARK   19  A    between atoms: _45  and  _47
REMARK   20  A    between atoms: _47  and  _48
REMARK   21  A    between atoms: _47  and  _50
REMARK   22  A    between atoms: _50  and  _51
REMARK   23  A    between atoms: _54  and  _56
REMARK   24  A    between atoms: _56  and  _57
REMARK   25  A    between atoms: _59  and  _61
REMARK   26  A    between atoms: _61  and  _62
REMARK   27  A    between atoms: _65  and  _67
REMARK   28  A    between atoms: _67  and  _68
REMARK   29  A    between atoms: _67  and  _70
REMARK   30  A    between atoms: _70  and  _71
REMARK   31  A    between atoms: _74  and  _76
REMARK   32  A    between atoms: _76  and  _77
REMARK   33  A    between atoms: _76  and  _79
REMARK   34  A    between atoms: _79  and  _80
REMARK   35  A    between atoms: _83  and  _85
REMARK   36  A    between atoms: _85  and  _86
REMARK   37  A    between atoms: _85  and  _88
REMARK   38  A    between atoms: _88  and  _89
REMARK   39  A    between atoms: _92  and  _94
REMARK   40  A    between atoms: _94  and  _95
REMARK   41  A    between atoms: _94  and  _97
REMARK   42  A    between atoms: _100  and  _102
REMARK   43  A    between atoms: _102  and  _103
REMARK   44  A    between atoms: _102  and  _105
REMARK   45  A    between atoms: _105  and  _106
REMARK   46  A    between atoms: _106  and  _107
REMARK   47  A    between atoms: _109  and  _111
REMARK   48  A    between atoms: _111  and  _112
REMARK   49  A    between atoms: _111  and  _114
REMARK   50  A    between atoms: _114  and  _115
REMARK   51  A    between atoms: _118  and  _120
REMARK   52  A    between atoms: _120  and  _121
REMARK   53  A    between atoms: _123  and  _125
REMARK   54  A    between atoms: _125  and  _126
REMARK   55  A    between atoms: _128  and  _130
REMARK   56  A    between atoms: _130  and  _131
REMARK   57  A    between atoms: _130  and  _133
REMARK   58  A    between atoms: _133  and  _134
REMARK   59  A    between atoms: _137  and  _139
REMARK   60  A    between atoms: _139  and  _140
REMARK   61  A    between atoms: _142  and  _144
REMARK   62  A    between atoms: _144  and  _145
REMARK   63  A    between atoms: _147  and  _149
REMARK   64  A    between atoms: _149  and  _150
REMARK   65  A    between atoms: _149  and  _152
REMARK   66  A    between atoms: _152  and  _153
REMARK   67  A    between atoms: _159  and  _161
REMARK   68  A    between atoms: _161  and  _162
REMARK   69  A    between atoms: _161  and  _164
REMARK   70  A    between atoms: _164  and  _165
REMARK   71  A    between atoms: _168  and  _170
REMARK   72  A    between atoms: _170  and  _171
REMARK   73  A    between atoms: _170  and  _173
REMARK   74  A    between atoms: _176  and  _178
REMARK   75  A    between atoms: _178  and  _179
REMARK   76  A    between atoms: _178  and  _181
REMARK   77  A    between atoms: _181  and  _182
REMARK   78  A    between atoms: _185  and  _187
REMARK   79  A    between atoms: _187  and  _188
REMARK   80  A    between atoms: _187  and  _190
REMARK   81  A    between atoms: _190  and  _191
REMARK   82  A    between atoms: _195  and  _196
REMARK   83  A    between atoms: _201  and  _203
REMARK   84  A    between atoms: _203  and  _204
REMARK   85  A    between atoms: _203  and  _206
REMARK   86  A    between atoms: _209  and  _211
REMARK   87  A    between atoms: _211  and  _212
REMARK   88  A    between atoms: _211  and  _214
REMARK   89  A    between atoms: _214  and  _215
REMARK   90  A    between atoms: _220  and  _222
REMARK   91  A    between atoms: _222  and  _223
REMARK   92  A    between atoms: _222  and  _225
REMARK   93  A    between atoms: _225  and  _226
REMARK   94  A    between atoms: _229  and  _231
REMARK   95  A    between atoms: _231  and  _232
REMARK   96  A    between atoms: _231  and  _234
REMARK   97  A    between atoms: _234  and  _235
REMARK   98  A    between atoms: _238  and  _240
REMARK   99  A    between atoms: _240  and  _241
REMARK  100  A    between atoms: _243  and  _245
REMARK  101  A    between atoms: _245  and  _246
REMARK  102  A    between atoms: _245  and  _248
REMARK  103  A    between atoms: _248  and  _249
REMARK  104  A    between atoms: _249  and  _250
REMARK  105  A    between atoms: _250  and  _251
REMARK  106  A    between atoms: _260  and  _262
REMARK  107  A    between atoms: _262  and  _263
REMARK  108  A    between atoms: _262  and  _265
REMARK  109  A    between atoms: _265  and  _266
REMARK  110  A    between atoms: _271  and  _273
REMARK  111  A    between atoms: _273  and  _274
REMARK  112  A    between atoms: _273  and  _276
REMARK  113  A    between atoms: _276  and  _277
REMARK  114  A    between atoms: _277  and  _278
REMARK  115  A    between atoms: _278  and  _279
REMARK  116  A    between atoms: _288  and  _290
REMARK  117  A    between atoms: _290  and  _291
REMARK  118  A    between atoms: _290  and  _293
REMARK  119  A    between atoms: _293  and  _294
REMARK  120  A    between atoms: _297  and  _299
REMARK  121  A    between atoms: _299  and  _300
REMARK  122  A    between atoms: _299  and  _302
REMARK  123  A    between atoms: _302  and  _303
REMARK  124  A    between atoms: _306  and  _308
REMARK  125  A    between atoms: _308  and  _309
REMARK  126  A    between atoms: _308  and  _311
REMARK  127  A    between atoms: _311  and  _312
REMARK  128  A    between atoms: _315  and  _317
REMARK  129  A    between atoms: _317  and  _318
REMARK  130  A    between atoms: _317  and  _320
REMARK  131  A    between atoms: _320  and  _321
REMARK  132  A    between atoms: _324  and  _326
REMARK  133  A    between atoms: _326  and  _327
REMARK  134  A    between atoms: _329  and  _331
REMARK  135  A    between atoms: _331  and  _332
REMARK  136  A    between atoms: _335  and  _337
REMARK  137  A    between atoms: _337  and  _338
REMARK  138  A    between atoms: _337  and  _340
REMARK  139  A    between atoms: _340  and  _341
REMARK  140  A    between atoms: _344  and  _346
REMARK  141  A    between atoms: _346  and  _347
REMARK  142  A    between atoms: _346  and  _349
REMARK  143  A    between atoms: _349  and  _350
REMARK  144  A    between atoms: _353  and  _355
REMARK  145  A    between atoms: _355  and  _356
REMARK  146  A    between atoms: _355  and  _358
REMARK  147  A    between atoms: _358  and  _359
REMARK  148  A    between atoms: _362  and  _364
REMARK  149  A    between atoms: _364  and  _365
REMARK  150  A    between atoms: _364  and  _367
REMARK  151  A    between atoms: _370  and  _372
REMARK  152  A    between atoms: _372  and  _373
REMARK  153  A    between atoms: _372  and  _375
REMARK  154  A    between atoms: _375  and  _376
REMARK  155  A    between atoms: _376  and  _377
REMARK  156  A    between atoms: _377  and  _378
REMARK  157  A    between atoms: _378  and  _379
REMARK  158  A    between atoms: _383  and  _385
REMARK  159  A    between atoms: _385  and  _386
REMARK  160  A    between atoms: _385  and  _388
REMARK  161  A    between atoms: _388  and  _389
REMARK  162  A    between atoms: _389  and  _390
REMARK  163  A    between atoms: _392  and  _394
REMARK  164  A    between atoms: _394  and  _395
REMARK  165  A    between atoms: _394  and  _397
REMARK  166  A    between atoms: _397  and  _398
REMARK  167  A    between atoms: _401  and  _403
REMARK  168  A    between atoms: _403  and  _404
REMARK  169  A    between atoms: _406  and  _408
REMARK  170  A    between atoms: _408  and  _409
REMARK  171  A    between atoms: _411  and  _413
REMARK  172  A    between atoms: _413  and  _414
REMARK  173  A    between atoms: _413  and  _416
REMARK  174  A    between atoms: _416  and  _417
REMARK  175  A    between atoms: _420  and  _422
REMARK  176  A    between atoms: _422  and  _423
REMARK  177  A    between atoms: _425  and  _427
REMARK  178  A    between atoms: _427  and  _428
REMARK  179  A    between atoms: _430  and  _432
REMARK  180  A    between atoms: _432  and  _433
REMARK  181  A    between atoms: _432  and  _435
REMARK  182  A    between atoms: _435  and  _436
REMARK  183  A    between atoms: _442  and  _444
REMARK  184  A    between atoms: _444  and  _445
REMARK  185  A    between atoms: _444  and  _447
REMARK  186  A    between atoms: _447  and  _448
REMARK  187  A    between atoms: _451  and  _453
REMARK  188  A    between atoms: _453  and  _454
REMARK  189  A    between atoms: _453  and  _456
REMARK  190  A    between atoms: _459  and  _461
REMARK  191  A    between atoms: _461  and  _462
REMARK  192  A    between atoms: _461  and  _464
REMARK  193  A    between atoms: _464  and  _465
REMARK  194  A    between atoms: _468  and  _470
REMARK  195  A    between atoms: _470  and  _471
REMARK  196  A    between atoms: _470  and  _473
REMARK  197  A    between atoms: _473  and  _474
REMARK  198  A    between atoms: _478  and  _479
REMARK  199  A    between atoms: _484  and  _486
REMARK  200  A    between atoms: _486  and  _487
REMARK  201  A    between atoms: _486  and  _489
REMARK  202  A    between atoms: _492  and  _494
REMARK  203  A    between atoms: _494  and  _495
REMARK  204  A    between atoms: _494  and  _497
REMARK  205  A    between atoms: _497  and  _498
REMARK  206  A    between atoms: _503  and  _505
REMARK  207  A    between atoms: _505  and  _506
REMARK  208  A    between atoms: _505  and  _508
REMARK  209  A    between atoms: _508  and  _509
REMARK  210  A    between atoms: _512  and  _514
REMARK  211  A    between atoms: _514  and  _515
REMARK  212  A    between atoms: _514  and  _517
REMARK  213  A    between atoms: _517  and  _518
REMARK  214  A    between atoms: _521  and  _523
REMARK  215  A    between atoms: _523  and  _524
REMARK  216  A    between atoms: _526  and  _528
REMARK  217  A    between atoms: _528  and  _529
REMARK  218  A    between atoms: _528  and  _531
REMARK  219  A    between atoms: _531  and  _532
REMARK  220  A    between atoms: _532  and  _533
REMARK  221  A    between atoms: _533  and  _534
REMARK                            x       y       z     vdW  Elec       q    Type
REMARK                         _______ _______ _______ _____ _____    ______ ____
ROOT
ATOM      1  CA  VAL A   1      17.695  -9.551  11.673  0.00  0.00    +0.133 C 
ENDROOT
BRANCH   1   2
ATOM      2  CB  VAL A   1      16.879  -8.669  12.697  0.00  0.00    +0.023 C 
ATOM      3  CG2 VAL A   1      16.215  -9.552  13.778  0.00  0.00    +0.002 C 
ATOM      4  CG1 VAL A   1      15.813  -7.853  11.967  0.00  0.00    +0.002 C 
ENDBRANCH   1   2
BRANCH   1   5
ATOM      5  N   VAL A   1      16.820 -10.494  10.997  0.00  0.00    -0.239 NA
ATOM      6  H   VAL A   1      16.568 -11.386  11.469  0.00  0.00    +0.142 HD
ENDBRANCH   1   5
BRANCH   1   7
ATOM      7  C   VAL A   1      18.776 -10.334  12.410  0.00  0.00    +0.224 C 
ATOM      8  O   VAL A   1      18.657 -11.540  12.639  0.00  0.00    -0.287 OA
ENDBRANCH   1   7
TORSDOF 3
REMARK  Name = ../refined-set-2016/1mtr/1mtr_pocket.pdb
REMARK  221 active torsions:
REMARK  status: ('A' for Active; 'I' for Inactive)
REMARK    1  A    between atoms: _1  and  _3
REMARK    2  A    between atoms: _3  and  _4
REMARK    3  A    between atoms: _3  and  _6
REMARK    4  A    between atoms: _6  and  _7
REMARK    5  A    between atoms: _7  and  _8
REMARK    6  A    between atoms: _8  and  _9
REMARK    7  A    between atoms: _18  and  _20
REMARK    8  A    between atoms: _20  and  _21
REMARK    9  A    between atoms: _20  and  _23
REMARK   10  A    between atoms: _23  and  _24
REMARK   11  A    between atoms: _27  and  _29
REMARK   12  A    between atoms: _29  and  _30
REMARK   13  A    between atoms: _29  and  _32
REMARK   14  A    between atoms: _32  and  _33
REMARK   15  A    between atoms: _36  and  _38
REMARK   16  A    between atoms: _38  and  _39
REMARK   17  A    between atoms: _38  and  _41
REMARK   18  A    between atoms: _41  and  _42
REMARK   19  A    between atoms: _45  and  _47
REMARK   20  A    between atoms: _47  and  _48
REMARK   21  A    between atoms: _47  and  _50
REMARK   22  A    between atoms: _50  and  _51
REMARK   23  A    between atoms: _54  and  _56
REMARK   24  A    between atoms: _56  and  _57
REMARK   25  A    between atoms: _59  and  _61
REMARK   26  A    between atoms: _61  and  _62
REMARK   27  A    between atoms: _65  and  _67
REMARK   28  A    between atoms: _67  and  _68
REMARK   29  A    between atoms: _67  and  _70
REMARK   30  A    between atoms: _70  and  _71
REMARK   31  A    between atoms: _74  and  _76
REMARK   32  A    between atoms: _76  and  _77
REMARK   33  A    between atoms: _76  and  _79
REMARK   34  A    between atoms: _79  and  _80
REMARK   35  A    between atoms: _83  and  _85
REMARK   36  A    between atoms: _85  and  _86
REMARK   37  A    between atoms: _85  and  _88
REMARK   38  A    between atoms: _88  and  _89
REMARK   39  A    between atoms: _92  and  _94
REMARK   40  A    between atoms: _94  and  _95
REMARK   41  A    between atoms: _94  and  _97
REMARK   42  A    between atoms: _100  and  _102
REMARK   43  A    between atoms: _102  and  _103
REMARK   44  A    between atoms: _102  and  _105
REMARK   45  A    between atoms: _105  and  _106
REMARK   46  A    between atoms: _106  and  _107
REMARK   47  A    between atoms: _109  and  _111
REMARK   48  A    between atoms: _111  and  _112
REMARK   49  A    between atoms: _111  and  _114
REMARK   50  A    between atoms: _114  and  _115
REMARK   51  A    between atoms: _118  and  _120
REMARK   52  A    between atoms: _120  and  _121
REMARK   53  A    between atoms: _123  and  _125
REMARK   54  A    between atoms: _125  and  _126
REMARK   55  A    between atoms: _128  and  _130
REMARK   56  A    between atoms: _130  and  _131
REMARK   57  A    between atoms: _130  and  _133
REMARK   58  A    between atoms: _133  and  _134
REMARK   59  A    between atoms: _137  and  _139
REMARK   60  A    between atoms: _139  and  _140
REMARK   61  A    between atoms: _142  and  _144
REMARK   62  A    between atoms: _144  and  _145
REMARK   63  A    between atoms: _147  and  _149
REMARK   64  A    between atoms: _149  and  _150
REMARK   65  A    between atoms: _149  and  _152
REMARK   66  A    between atoms: _152  and  _153
REMARK   67  A    between atoms: _159  and  _161
REMARK   68  A    between atoms: _161  and  _162
REMARK   69  A    between atoms: _161  and  _164
REMARK   70  A    between atoms: _164  and  _165
REMARK   71  A    between atoms: _168  and  _170
REMARK   72  A    between atoms: _170  and  _171
REMARK   73  A    between atoms: _170  and  _173
REMARK   74  A    between atoms: _176  and  _178
REMARK   75  A    between atoms: _178  and  _179
REMARK   76  A    between atoms: _178  and  _181
REMARK   77  A    between atoms: _181  and  _182
REMARK   78  A    between atoms: _185  and  _187
REMARK   79  A    between atoms: _187  and  _188
REMARK   80  A    between atoms: _187  and  _190
REMARK   81  A    between atoms: _190  and  _191
REMARK   82  A    between atoms: _195  and  _196
REMARK   83  A    between atoms: _201  and  _203
REMARK   84  A    between atoms: _203  and  _204
REMARK   85  A    between atoms: _203  and  _206
REMARK   86  A    between atoms: _209  and  _211
REMARK   87  A    between atoms: _211  and  _212
REMARK   88  A    between atoms: _211  and  _214
REMARK   89  A    between atoms: _214  and  _215
REMARK   90  A    between atoms: _220  and  _222
REMARK   91  A    between atoms: _222  and  _223
REMARK   92  A    between atoms: _222  and  _225
REMARK   93  A    between atoms: _225  and  _226
REMARK   94  A    between atoms: _229  and  _231
REMARK   95  A    between atoms: _231  and  _232
REMARK   96  A    between atoms: _231  and  _234
REMARK   97  A    between atoms: _234  and  _235
REMARK   98  A    between atoms: _238  and  _240
REMARK   99  A    between atoms: _240  and  _241
REMARK  100  A    between atoms: _243  and  _245
REMARK  101  A    between atoms: _245  and  _246
REMARK  102  A    between atoms: _245  and  _248
REMARK  103  A    between atoms: _248  and  _249
REMARK  104  A    between atoms: _249  and  _250
REMARK  105  A    between atoms: _250  and  _251
REMARK  106  A    between atoms: _260  and  _262
REMARK  107  A    between atoms: _262  and  _263
REMARK  108  A    between atoms: _262  and  _265
REMARK  109  A    between atoms: _265  and  _266
REMARK  110  A    between atoms: _271  and  _273
REMARK  111  A    between atoms: _273  and  _274
REMARK  112  A    between atoms: _273  and  _276
REMARK  113  A    between atoms: _276  and  _277
REMARK  114  A    between atoms: _277  and  _278
REMARK  115  A    between atoms: _278  and  _279
REMARK  116  A    between atoms: _288  and  _290
REMARK  117  A    between atoms: _290  and  _291
REMARK  118  A    between atoms: _290  and  _293
REMARK  119  A    between atoms: _293  and  _294
REMARK  120  A    between atoms: _297  and  _299
REMARK  121  A    between atoms: _299  and  _300
REMARK  122  A    between atoms: _299  and  _302
REMARK  123  A    between atoms: _302  and  _303
REMARK  124  A    between atoms: _306  and  _308
REMARK  125  A    between atoms: _308  and  _309
REMARK  126  A    between atoms: _308  and  _311
REMARK  127  A    between atoms: _311  and  _312
REMARK  128  A    between atoms: _315  and  _317
REMARK  129  A    between atoms: _317  and  _318
REMARK  130  A    between atoms: _317  and  _320
REMARK  131  A    between atoms: _320  and  _321
REMARK  132  A    between atoms: _324  and  _326
REMARK  133  A    between atoms: _326  and  _327
REMARK  134  A    between atoms: _329  and  _331
REMARK  135  A    between atoms: _331  and  _332
REMARK  136  A    between atoms: _335  and  _337
REMARK  137  A    between atoms: _337  and  _338
REMARK  138  A    between atoms: _337  and  _340
REMARK  139  A    between atoms: _340  and  _341
REMARK  140  A    between atoms: _344  and  _346
REMARK  141  A    between atoms: _346  and  _347
REMARK  142  A    between atoms: _346  and  _349
REMARK  143  A    between atoms: _349  and  _350
REMARK  144  A    between atoms: _353  and  _355
REMARK  145  A    between atoms: _355  and  _356
REMARK  146  A    between atoms: _355  and  _358
REMARK  147  A    between atoms: _358  and  _359
REMARK  148  A    between atoms: _362  and  _364
REMARK  149  A    between atoms: _364  and  _365
REMARK  150  A    between atoms: _364  and  _367
REMARK  151  A    between atoms: _370  and  _372
REMARK  152  A    between atoms: _372  and  _373
REMARK  153  A    between atoms: _372  and  _375
REMARK  154  A    between atoms: _375  and  _376
REMARK  155  A    between atoms: _376  and  _377
REMARK  156  A    between atoms: _377  and  _378
REMARK  157  A    between atoms: _378  and  _379
REMARK  158  A    between atoms: _383  and  _385
REMARK  159  A    between atoms: _385  and  _386
REMARK  160  A    between atoms: _385  and  _388
REMARK  161  A    between atoms: _388  and  _389
REMARK  162  A    between atoms: _389  and  _390
REMARK  163  A    between atoms: _392  and  _394
REMARK  164  A    between atoms: _394  and  _395
REMARK  165  A    between atoms: _394  and  _397
REMARK  166  A    between atoms: _397  and  _398
REMARK  167  A    between atoms: _401  and  _403
REMARK  168  A    between atoms: _403  and  _404
REMARK  169  A    between atoms: _406  and  _408
REMARK  170  A    between atoms: _408  and  _409
REMARK  171  A    between atoms: _411  and  _413
REMARK  172  A    between atoms: _413  and  _414
REMARK  173  A    between atoms: _413  and  _416
REMARK  174  A    between atoms: _416  and  _417
REMARK  175  A    between atoms: _420  and  _422
REMARK  176  A    between atoms: _422  and  _423
REMARK  177  A    between atoms: _425  and  _427
REMARK  178  A    between atoms: _427  and  _428
REMARK  179  A    between atoms: _430  and  _432
REMARK  180  A    between atoms: _432  and  _433
REMARK  181  A    between atoms: _432  and  _435
REMARK  182  A    between atoms: _435  and  _436
REMARK  183  A    between atoms: _442  and  _444
REMARK  184  A    between atoms: _444  and  _445
REMARK  185  A    between atoms: _444  and  _447
REMARK  186  A    between atoms: _447  and  _448
REMARK  187  A    between atoms: _451  and  _453
REMARK  188  A    between atoms: _453  and  _454
REMARK  189  A    between atoms: _453  and  _456
REMARK  190  A    between atoms: _459  and  _461
REMARK  191  A    between atoms: _461  and  _462
REMARK  192  A    between atoms: _461  and  _464
REMARK  193  A    between atoms: _464  and  _465
REMARK  194  A    between atoms: _468  and  _470
REMARK  195  A    between atoms: _470  and  _471
REMARK  196  A    between atoms: _470  and  _473
REMARK  197  A    between atoms: _473  and  _474
REMARK  198  A    between atoms: _478  and  _479
REMARK  199  A    between atoms: _484  and  _486
REMARK  200  A    between atoms: _486  and  _487
REMARK  201  A    between atoms: _486  and  _489
REMARK  202  A    between atoms: _492  and  _494
REMARK  203  A    between atoms: _494  and  _495
REMARK  204  A    between atoms: _494  and  _497
REMARK  205  A    between atoms: _497  and  _498
REMARK  206  A    between atoms: _503  and  _505
REMARK  207  A    between atoms: _505  and  _506
REMARK  208  A    between atoms: _505  and  _508
REMARK  209  A    between atoms: _508  and  _509
REMARK  210  A    between atoms: _512  and  _514
REMARK  211  A    between atoms: _514  and  _515
REMARK  212  A    between atoms: _514  and  _517
REMARK  213  A    between atoms: _517  and  _518
REMARK  214  A    between atoms: _521  and  _523
REMARK  215  A    between atoms: _523  and  _524
REMARK  216  A    between atoms: _526  and  _528
REMARK  217  A    between atoms: _528  and  _529
REMARK  218  A    between atoms: _528  and  _531
REMARK  219  A    between atoms: _531  and  _532
REMARK  220  A    between atoms: _532  and  _533
REMARK  221  A    between atoms: _533  and  _534
REMARK                            x       y       z     vdW  Elec       q    Type
REMARK                         _______ _______ _______ _____ _____    ______ ____
ROOT
ATOM      1  CA  LEU A   1      18.575  -6.371  16.445  0.00  0.00    +0.133 C 
ENDROOT
BRANCH   1   2
ATOM      2  N   LEU A   1      18.721  -5.548  17.647  0.00  0.00    -0.239 NA
ATOM      3  H   LEU A   1      18.000  -4.833  17.870  0.00  0.00    +0.142 HD
ENDBRANCH   1   2
BRANCH   1   4
ATOM      4  C   LEU A   1      18.939  -5.467  15.267  0.00  0.00    +0.224 C 
ATOM      5  O   LEU A   1      18.549  -4.308  15.256  0.00  0.00    -0.287 OA
ENDBRANCH   1   4
BRANCH   1   6
ATOM      6  CB  LEU A   1      17.147  -6.865  16.328  0.00  0.00    +0.025 C 
BRANCH   6   7
ATOM      7  CG  LEU A   1      16.558  -7.514  17.587  0.00  0.00    +0.002 C 
ATOM      8  CD2 LEU A   1      17.349  -8.755  18.018  0.00  0.00    +0.000 C 
ATOM      9  CD1 LEU A   1      15.112  -7.848  17.307  0.00  0.00    +0.000 C 
ENDBRANCH   6   7
ENDBRANCH   1   6
TORSDOF 4
REMARK  Name = ../refined-set-2016/1mtr/1mtr_pocket.pdb
REMARK  221 active torsions:
REMARK  status: ('A' for Active; 'I' for Inactive)
REMARK    1  A    between atoms: _1  and  _3
REMARK    2  A    between atoms: _3  and  _4
REMARK    3  A    between atoms: _3  and  _6
REMARK    4  A    between atoms: _6  and  _7
REMARK    5  A    between atoms: _7  and  _8
REMARK    6  A    between atoms: _8  and  _9
REMARK    7  A    between atoms: _18  and  _20
REMARK    8  A    between atoms: _20  and  _21
REMARK    9  A    between atoms: _20  and  _23
REMARK   10  A    between atoms: _23  and  _24
REMARK   11  A    between atoms: _27  and  _29
REMARK   12  A    between atoms: _29  and  _30
REMARK   13  A    between atoms: _29  and  _32
REMARK   14  A    between atoms: _32  and  _33
REMARK   15  A    between atoms: _36  and  _38
REMARK   16  A    between atoms: _38  and  _39
REMARK   17  A    between atoms: _38  and  _41
REMARK   18  A    between atoms: _41  and  _42
REMARK   19  A    between atoms: _45  and  _47
REMARK   20  A    between atoms: _47  and  _48
REMARK   21  A    between atoms: _47  and  _50
REMARK   22  A    between atoms: _50  and  _51
REMARK   23  A    between atoms: _54  and  _56
REMARK   24  A    between atoms: _56  and  _57
REMARK   25  A    between atoms: _59  and  _61
REMARK   26  A    between atoms: _61  and  _62
REMARK   27  A    between atoms: _65  and  _67
REMARK   28  A    between atoms: _67  and  _68
REMARK   29  A    between atoms: _67  and  _70
REMARK   30  A    between atoms: _70  and  _71
REMARK   31  A    between atoms: _74  and  _76
REMARK   32  A    between atoms: _76  and  _77
REMARK   33  A    between atoms: _76  and  _79
REMARK   34  A    between atoms: _79  and  _80
REMARK   35  A    between atoms: _83  and  _85
REMARK   36  A    between atoms: _85  and  _86
REMARK   37  A    between atoms: _85  and  _88
REMARK   38  A    between atoms: _88  and  _89
REMARK   39  A    between atoms: _92  and  _94
REMARK   40  A    between atoms: _94  and  _95
REMARK   41  A    between atoms: _94  and  _97
REMARK   42  A    between atoms: _100  and  _102
REMARK   43  A    between atoms: _102  and  _103
REMARK   44  A    between atoms: _102  and  _105
REMARK   45  A    between atoms: _105  and  _106
REMARK   46  A    between atoms: _106  and  _107
REMARK   47  A    between atoms: _109  and  _111
REMARK   48  A    between atoms: _111  and  _112
REMARK   49  A    between atoms: _111  and  _114
REMARK   50  A    between atoms: _114  and  _115
REMARK   51  A    between atoms: _118  and  _120
REMARK   52  A    between atoms: _120  and  _121
REMARK   53  A    between atoms: _123  and  _125
REMARK   54  A    between atoms: _125  and  _126
REMARK   55  A    between atoms: _128  and  _130
REMARK   56  A    between atoms: _130  and  _131
REMARK   57  A    between atoms: _130  and  _133
REMARK   58  A    between atoms: _133  and  _134
REMARK   59  A    between atoms: _137  and  _139
REMARK   60  A    between atoms: _139  and  _140
REMARK   61  A    between atoms: _142  and  _144
REMARK   62  A    between atoms: _144  and  _145
REMARK   63  A    between atoms: _147  and  _149
REMARK   64  A    between atoms: _149  and  _150
REMARK   65  A    between atoms: _149  and  _152
REMARK   66  A    between atoms: _152  and  _153
REMARK   67  A    between atoms: _159  and  _161
REMARK   68  A    between atoms: _161  and  _162
REMARK   69  A    between atoms: _161  and  _164
REMARK   70  A    between atoms: _164  and  _165
REMARK   71  A    between atoms: _168  and  _170
REMARK   72  A    between atoms: _170  and  _171
REMARK   73  A    between atoms: _170  and  _173
REMARK   74  A    between atoms: _176  and  _178
REMARK   75  A    between atoms: _178  and  _179
REMARK   76  A    between atoms: _178  and  _181
REMARK   77  A    between atoms: _181  and  _182
REMARK   78  A    between atoms: _185  and  _187
REMARK   79  A    between atoms: _187  and  _188
REMARK   80  A    between atoms: _187  and  _190
REMARK   81  A    between atoms: _190  and  _191
REMARK   82  A    between atoms: _195  and  _196
REMARK   83  A    between atoms: _201  and  _203
REMARK   84  A    between atoms: _203  and  _204
REMARK   85  A    between atoms: _203  and  _206
REMARK   86  A    between atoms: _209  and  _211
REMARK   87  A    between atoms: _211  and  _212
REMARK   88  A    between atoms: _211  and  _214
REMARK   89  A    between atoms: _214  and  _215
REMARK   90  A    between atoms: _220  and  _222
REMARK   91  A    between atoms: _222  and  _223
REMARK   92  A    between atoms: _222  and  _225
REMARK   93  A    between atoms: _225  and  _226
REMARK   94  A    between atoms: _229  and  _231
REMARK   95  A    between atoms: _231  and  _232
REMARK   96  A    between atoms: _231  and  _234
REMARK   97  A    between atoms: _234  and  _235
REMARK   98  A    between atoms: _238  and  _240
REMARK   99  A    between atoms: _240  and  _241
REMARK  100  A    between atoms: _243  and  _245
REMARK  101  A    between atoms: _245  and  _246
REMARK  102  A    between atoms: _245  and  _248
REMARK  103  A    between atoms: _248  and  _249
REMARK  104  A    between atoms: _249  and  _250
REMARK  105  A    between atoms: _250  and  _251
REMARK  106  A    between atoms: _260  and  _262
REMARK  107  A    between atoms: _262  and  _263
REMARK  108  A    between atoms: _262  and  _265
REMARK  109  A    between atoms: _265  and  _266
REMARK  110  A    between atoms: _271  and  _273
REMARK  111  A    between atoms: _273  and  _274
REMARK  112  A    between atoms: _273  and  _276
REMARK  113  A    between atoms: _276  and  _277
REMARK  114  A    between atoms: _277  and  _278
REMARK  115  A    between atoms: _278  and  _279
REMARK  116  A    between atoms: _288  and  _290
REMARK  117  A    between atoms: _290  and  _291
REMARK  118  A    between atoms: _290  and  _293
REMARK  119  A    between atoms: _293  and  _294
REMARK  120  A    between atoms: _297  and  _299
REMARK  121  A    between atoms: _299  and  _300
REMARK  122  A    between atoms: _299  and  _302
REMARK  123  A    between atoms: _302  and  _303
REMARK  124  A    between atoms: _306  and  _308
REMARK  125  A    between atoms: _308  and  _309
REMARK  126  A    between atoms: _308  and  _311
REMARK  127  A    between atoms: _311  and  _312
REMARK  128  A    between atoms: _315  and  _317
REMARK  129  A    between atoms: _317  and  _318
REMARK  130  A    between atoms: _317  and  _320
REMARK  131  A    between atoms: _320  and  _321
REMARK  132  A    between atoms: _324  and  _326
REMARK  133  A    between atoms: _326  and  _327
REMARK  134  A    between atoms: _329  and  _331
REMARK  135  A    between atoms: _331  and  _332
REMARK  136  A    between atoms: _335  and  _337
REMARK  137  A    between atoms: _337  and  _338
REMARK  138  A    between atoms: _337  and  _340
REMARK  139  A    between atoms: _340  and  _341
REMARK  140  A    between atoms: _344  and  _346
REMARK  141  A    between atoms: _346  and  _347
REMARK  142  A    between atoms: _346  and  _349
REMARK  143  A    between atoms: _349  and  _350
REMARK  144  A    between atoms: _353  and  _355
REMARK  145  A    between atoms: _355  and  _356
REMARK  146  A    between atoms: _355  and  _358
REMARK  147  A    between atoms: _358  and  _359
REMARK  148  A    between atoms: _362  and  _364
REMARK  149  A    between atoms: _364  and  _365
REMARK  150  A    between atoms: _364  and  _367
REMARK  151  A    between atoms: _370  and  _372
REMARK  152  A    between atoms: _372  and  _373
REMARK  153  A    between atoms: _372  and  _375
REMARK  154  A    between atoms: _375  and  _376
REMARK  155  A    between atoms: _376  and  _377
REMARK  156  A    between atoms: _377  and  _378
REMARK  157  A    between atoms: _378  and  _379
REMARK  158  A    between atoms: _383  and  _385
REMARK  159  A    between atoms: _385  and  _386
REMARK  160  A    between atoms: _385  and  _388
REMARK  161  A    between atoms: _388  and  _389
REMARK  162  A    between atoms: _389  and  _390
REMARK  163  A    between atoms: _392  and  _394
REMARK  164  A    between atoms: _394  and  _395
REMARK  165  A    between atoms: _394  and  _397
REMARK  166  A    between atoms: _397  and  _398
REMARK  167  A    between atoms: _401  and  _403
REMARK  168  A    between atoms: _403  and  _404
REMARK  169  A    between atoms: _406  and  _408
REMARK  170  A    between atoms: _408  and  _409
REMARK  171  A    between atoms: _411  and  _413
REMARK  172  A    between atoms: _413  and  _414
REMARK  173  A    between atoms: _413  and  _416
REMARK  174  A    between atoms: _416  and  _417
REMARK  175  A    between atoms: _420  and  _422
REMARK  176  A    between atoms: _422  and  _423
REMARK  177  A    between atoms: _425  and  _427
REMARK  178  A    between atoms: _427  and  _428
REMARK  179  A    between atoms: _430  and  _432
REMARK  180  A    between atoms: _432  and  _433
REMARK  181  A    between atoms: _432  and  _435
REMARK  182  A    between atoms: _435  and  _436
REMARK  183  A    between atoms: _442  and  _444
REMARK  184  A    between atoms: _444  and  _445
REMARK  185  A    between atoms: _444  and  _447
REMARK  186  A    between atoms: _447  and  _448
REMARK  187  A    between atoms: _451  and  _453
REMARK  188  A    between atoms: _453  and  _454
REMARK  189  A    between atoms: _453  and  _456
REMARK  190  A    between atoms: _459  and  _461
REMARK  191  A    between atoms: _461  and  _462
REMARK  192  A    between atoms: _461  and  _464
REMARK  193  A    between atoms: _464  and  _465
REMARK  194  A    between atoms: _468  and  _470
REMARK  195  A    between atoms: _470  and  _471
REMARK  196  A    between atoms: _470  and  _473
REMARK  197  A    between atoms: _473  and  _474
REMARK  198  A    between atoms: _478  and  _479
REMARK  199  A    between atoms: _484  and  _486
REMARK  200  A    between atoms: _486  and  _487
REMARK  201  A    between atoms: _486  and  _489
REMARK  202  A    between atoms: _492  and  _494
REMARK  203  A    between atoms: _494  and  _495
REMARK  204  A    between atoms: _494  and  _497
REMARK  205  A    between atoms: _497  and  _498
REMARK  206  A    between atoms: _503  and  _505
REMARK  207  A    between atoms: _505  and  _506
REMARK  208  A    between atoms: _505  and  _508
REMARK  209  A    between atoms: _508  and  _509
REMARK  210  A    between atoms: _512  and  _514
REMARK  211  A    between atoms: _514  and  _515
REMARK  212  A    between atoms: _514  and  _517
REMARK  213  A    between atoms: _517  and  _518
REMARK  214  A    between atoms: _521  and  _523
REMARK  215  A    between atoms: _523  and  _524
REMARK  216  A    between atoms: _526  and  _528
REMARK  217  A    between atoms: _528  and  _529
REMARK  218  A    between atoms: _528  and  _531
REMARK  219  A    between atoms: _531  and  _532
REMARK  220  A    between atoms: _532  and  _533
REMARK  221  A    between atoms: _533  and  _534
REMARK                            x       y       z     vdW  Elec       q    Type
REMARK                         _______ _______ _______ _____ _____    ______ ____
ROOT
ATOM      1  CA  ILE A   5      13.243   1.750  16.729  0.00  0.00    +0.149 C 
ENDROOT
BRANCH   1   3
ATOM      2  C   ASN A   4      14.536   2.975  15.052  0.00  0.00    +0.241 C 
ATOM      3  N   ILE A   5      14.338   1.868  15.755  0.00  0.00    -0.297 N 
ATOM      4  H   ILE A   5      14.976   1.059  15.613  0.00  0.00    +0.150 HD
ATOM      5  O   ASN A   4      13.833   3.980  15.190  0.00  0.00    -0.273 OA
BRANCH   2   6
ATOM      6  CA  ASN A   4      15.671   2.944  14.007  0.00  0.00    +0.158 C 
BRANCH   6   8
ATOM      7  C   VAL A   3      14.279   2.885  12.003  0.00  0.00    +0.241 C 
ATOM      8  N   ASN A   4      15.114   3.559  12.790  0.00  0.00    -0.297 N 
ATOM      9  H   ASN A   4      15.377   4.534  12.542  0.00  0.00    +0.150 HD
ATOM     10  O   VAL A   3      14.004   1.694  12.175  0.00  0.00    -0.273 OA
BRANCH   7  11
ATOM     11  CA  VAL A   3      13.720   3.645  10.811  0.00  0.00    +0.149 C 
BRANCH  11  13
ATOM     12  C   PRO A   2      13.548   3.049   8.438  0.00  0.00    +0.241 C 
ATOM     13  N   VAL A   3      13.357   2.717   9.718  0.00  0.00    -0.297 N 
ATOM     14  H   VAL A   3      12.946   1.790   9.950  0.00  0.00    +0.150 HD
ATOM     15  O   PRO A   2      14.002   4.143   8.091  0.00  0.00    -0.273 OA
BRANCH  12  22
ATOM     16  C   THR A   1      14.310   0.087   8.290  0.00  0.00    +0.244 C 
ATOM     17  O   THR A   1      15.397   0.653   8.135  0.00  0.00    -0.273 OA
ATOM     18  N   PRO A   2      13.150   0.646   7.903  0.00  0.00    -0.272 N 
ATOM     19  CD  PRO A   2      11.844   0.000   7.679  0.00  0.00    +0.094 C 
ATOM     20  CG  PRO A   2      10.924   1.177   7.631  0.00  0.00    +0.024 C 
ATOM     21  CB  PRO A   2      11.701   2.214   6.916  0.00  0.00    +0.031 C 
ATOM     22  CA  PRO A   2      13.146   2.018   7.386  0.00  0.00    +0.152 C 
BRANCH  16  23
ATOM     23  CA  THR A   1      14.256  -1.334   8.831  0.00  0.00    +0.172 C 
BRANCH  23  24
ATOM     24  N   THR A   1      15.441  -2.084   8.352  0.00  0.00    -0.236 NA
ATOM     25  H   THR A   1      16.381  -1.839   8.724  0.00  0.00    +0.142 HD
ENDBRANCH  23  24
BRANCH  23  26
ATOM     26  CB  THR A   1      14.182  -1.262  10.391  0.00  0.00    +0.135 C 
ATOM     27  CG2 THR A   1      15.509  -0.767  10.970  0.00  0.00    +0.034 C 
BRANCH  26  28
ATOM     28  OG1 THR A   1      13.129  -0.366  10.782  0.00  0.00    -0.383 OA
ATOM     29  HG1 THR A   1      13.313   0.536  10.419  0.00  0.00    +0.210 HD
ENDBRANCH  26  28
ENDBRANCH  23  26
ENDBRANCH  16  23
ENDBRANCH  12  22
ENDBRANCH  11  13
BRANCH  11  30
ATOM     30  CB  VAL A   3      12.496   4.480  11.323  0.00  0.00    +0.027 C 
ATOM     31  CG2 VAL A   3      11.396   3.563  11.799  0.00  0.00    +0.002 C 
ATOM     32  CG1 VAL A   3      11.978   5.419  10.247  0.00  0.00    +0.002 C 
ENDBRANCH  11  30
ENDBRANCH   7  11
ENDBRANCH   6   8
BRANCH   6  33
ATOM     33  CB  ASN A   4      16.887   3.733  14.459  0.00  0.00    +0.114 C 
BRANCH  33  34
ATOM     34  CG  ASN A   4      17.961   3.707  13.439  0.00  0.00    +0.222 C 
ATOM     35  ND2 ASN A   4      18.467   4.867  13.054  0.00  0.00    -0.329 N 
ATOM     36 HD21 ASN A   4      18.134   5.750  13.491  0.00  0.00    +0.145 HD
ATOM     37 HD22 ASN A   4      19.198   4.896  12.315  0.00  0.00    +0.145 HD
ATOM     38  OD1 ASN A   4      18.312   2.637  12.963  0.00  0.00    -0.275 OA
ENDBRANCH  33  34
ENDBRANCH   6  33
ENDBRANCH   2   6
ENDBRANCH   1   3
BRANCH   1  39
ATOM     39  C   ILE A   5      13.753   1.366  18.112  0.00  0.00    +0.241 C 
ATOM     40  N   ILE A   6      13.506   2.201  19.119  0.00  0.00    -0.297 N 
ATOM     41  H   ILE A   6      13.019   3.102  18.940  0.00  0.00    +0.150 HD
ATOM     42  O   ILE A   5      14.388   0.317  18.257  0.00  0.00    -0.273 OA
BRANCH  40  43
ATOM     43  CA  ILE A   6      13.925   1.846  20.492  0.00  0.00    +0.149 C 
BRANCH  43  44
ATOM     44  C   ILE A   6      12.695   1.226  21.127  0.00  0.00    +0.241 C 
ATOM     45  N   GLY A   7      12.802  -0.050  21.474  0.00  0.00    -0.295 N 
ATOM     46  H   GLY A   7      13.704  -0.542  21.312  0.00  0.00    +0.150 HD
ATOM     47  O   ILE A   6      11.662   1.882  21.242  0.00  0.00    -0.273 OA
BRANCH  45  48
ATOM     48  CA  GLY A   7      11.700  -0.782  22.073  0.00  0.00    +0.176 C 
BRANCH  48  49
ATOM     49  C   GLY A   7      11.734  -0.772  23.603  0.00  0.00    +0.243 C 
ATOM     50  O   GLY A   7      12.638  -0.194  24.226  0.00  0.00    -0.273 OA
ATOM     51  N   ARG A   8      10.766  -1.449  24.208  0.00  0.00    -0.298 N 
ATOM     52  H   ARG A   8      10.065  -1.944  23.621  0.00  0.00    +0.150 HD
BRANCH  51  53
ATOM     53  CA  ARG A   8      10.640  -1.531  25.667  0.00  0.00    +0.137 C 
BRANCH  53  54
ATOM     54  C   ARG A   8      11.850  -2.081  26.427  0.00  0.00    +0.227 C 
ATOM     55  O   ARG A   8      12.074  -1.698  27.588  0.00  0.00    -0.286 OA
ENDBRANCH  53  54
BRANCH  53  56
ATOM     56  CB  ARG A   8       9.411  -2.351  26.047  0.00  0.00    +0.031 C 
BRANCH  56  57
ATOM     57  CG  ARG A   8       8.088  -1.743  25.576  0.00  0.00    +0.045 C 
BRANCH  57  58
ATOM     58  CD  ARG A   8       6.890  -2.521  26.140  0.00  0.00    +0.174 C 
BRANCH  58  59
ATOM     59  NE  ARG A   8       6.834  -3.881  25.579  0.00  0.00    -0.265 N 
ATOM     60  CZ  ARG A   8       7.238  -4.964  26.235  0.00  0.00    +0.342 C 
ATOM     61  NH2 ARG A   8       7.708  -4.856  27.481  0.00  0.00    -0.292 N 
ATOM     62 HH21 ARG A   8       8.024  -5.704  27.993  0.00  0.00    +0.255 HD
ATOM     63 HH22 ARG A   8       7.758  -3.924  27.939  0.00  0.00    +0.255 HD
ATOM     64  NH1 ARG A   8       7.284  -6.126  25.604  0.00  0.00    -0.292 N 
ATOM     65 HH11 ARG A   8       7.599  -6.979  26.108  0.00  0.00    +0.255 HD
ATOM     66 HH12 ARG A   8       7.005  -6.186  24.604  0.00  0.00    +0.255 HD
ATOM     67  HE  ARG A   8       6.458  -4.001  24.617  0.00  0.00    +0.259 HD
ENDBRANCH  58  59
ENDBRANCH  57  58
ENDBRANCH  56  57
ENDBRANCH  53  56
ENDBRANCH  51  53
ENDBRANCH  48  49
ENDBRANCH  45  48
ENDBRANCH  43  44
BRANCH  43  68
ATOM     68  CB  ILE A   6      14.350   3.071  21.340  0.00  0.00    +0.027 C 
ATOM     69  CG2 ILE A   6      14.737   2.631  22.722  0.00  0.00    +0.002 C 
BRANCH  68  70
ATOM     70  CG1 ILE A   6      15.501   3.811  20.669  0.00  0.00    +0.002 C 
ATOM     71  CD1 ILE A   6      16.738   2.951  20.415  0.00  0.00    +0.000 C 
ENDBRANCH  68  70
ENDBRANCH  43  68
ENDBRANCH  40  43
ENDBRANCH   1  39
BRANCH   1  72
ATOM     72  CB  ILE A   5      12.248   0.644  16.263  0.00  0.00    +0.027 C 
ATOM     73  CG2 ILE A   5      11.194   0.363  17.313  0.00  0.00    +0.002 C 
BRANCH  72  74
ATOM     74  CG1 ILE A   5      11.538   1.076  14.988  0.00  0.00    +0.002 C 
ATOM     75  CD1 ILE A   5      10.843  -0.072  14.299  0.00  0.00    +0.000 C 
ENDBRANCH  72  74
ENDBRANCH   1  72
TORSDOF 28
REMARK  Name = ../refined-set-2016/1mtr/1mtr_pocket.pdb
REMARK  221 active torsions:
REMARK  status: ('A' for Active; 'I' for Inactive)
REMARK    1  A    between atoms: _1  and  _3
REMARK    2  A    between atoms: _3  and  _4
REMARK    3  A    between atoms: _3  and  _6
REMARK    4  A    between atoms: _6  and  _7
REMARK    5  A    between atoms: _7  and  _8
REMARK    6  A    between atoms: _8  and  _9
REMARK    7  A    between atoms: _18  and  _20
REMARK    8  A    between atoms: _20  and  _21
REMARK    9  A    between atoms: _20  and  _23
REMARK   10  A    between atoms: _23  and  _24
REMARK   11  A    between atoms: _27  and  _29
REMARK   12  A    between atoms: _29  and  _30
REMARK   13  A    between atoms: _29  and  _32
REMARK   14  A    between atoms: _32  and  _33
REMARK   15  A    between atoms: _36  and  _38
REMARK   16  A    between atoms: _38  and  _39
REMARK   17  A    between atoms: _38  and  _41
REMARK   18  A    between atoms: _41  and  _42
REMARK   19  A    between atoms: _45  and  _47
REMARK   20  A    between atoms: _47  and  _48
REMARK   21  A    between atoms: _47  and  _50
REMARK   22  A    between atoms: _50  and  _51
REMARK   23  A    between atoms: _54  and  _56
REMARK   24  A    between atoms: _56  and  _57
REMARK   25  A    between atoms: _59  and  _61
REMARK   26  A    between atoms: _61  and  _62
REMARK   27  A    between atoms: _65  and  _67
REMARK   28  A    between atoms: _67  and  _68
REMARK   29  A    between atoms: _67  and  _70
REMARK   30  A    between atoms: _70  and  _71
REMARK   31  A    between atoms: _74  and  _76
REMARK   32  A    between atoms: _76  and  _77
REMARK   33  A    between atoms: _76  and  _79
REMARK   34  A    between atoms: _79  and  _80
REMARK   35  A    between atoms: _83  and  _85
REMARK   36  A    between atoms: _85  and  _86
REMARK   37  A    between atoms: _85  and  _88
REMARK   38  A    between atoms: _88  and  _89
REMARK   39  A    between atoms: _92  and  _94
REMARK   40  A    between atoms: _94  and  _95
REMARK   41  A    between atoms: _94  and  _97
REMARK   42  A    between atoms: _100  and  _102
REMARK   43  A    between atoms: _102  and  _103
REMARK   44  A    between atoms: _102  and  _105
REMARK   45  A    between atoms: _105  and  _106
REMARK   46  A    between atoms: _106  and  _107
REMARK   47  A    between atoms: _109  and  _111
REMARK   48  A    between atoms: _111  and  _112
REMARK   49  A    between atoms: _111  and  _114
REMARK   50  A    between atoms: _114  and  _115
REMARK   51  A    between atoms: _118  and  _120
REMARK   52  A    between atoms: _120  and  _121
REMARK   53  A    between atoms: _123  and  _125
REMARK   54  A    between atoms: _125  and  _126
REMARK   55  A    between atoms: _128  and  _130
REMARK   56  A    between atoms: _130  and  _131
REMARK   57  A    between atoms: _130  and  _133
REMARK   58  A    between atoms: _133  and  _134
REMARK   59  A    between atoms: _137  and  _139
REMARK   60  A    between atoms: _139  and  _140
REMARK   61  A    between atoms: _142  and  _144
REMARK   62  A    between atoms: _144  and  _145
REMARK   63  A    between atoms: _147  and  _149
REMARK   64  A    between atoms: _149  and  _150
REMARK   65  A    between atoms: _149  and  _152
REMARK   66  A    between atoms: _152  and  _153
REMARK   67  A    between atoms: _159  and  _161
REMARK   68  A    between atoms: _161  and  _162
REMARK   69  A    between atoms: _161  and  _164
REMARK   70  A    between atoms: _164  and  _165
REMARK   71  A    between atoms: _168  and  _170
REMARK   72  A    between atoms: _170  and  _171
REMARK   73  A    between atoms: _170  and  _173
REMARK   74  A    between atoms: _176  and  _178
REMARK   75  A    between atoms: _178  and  _179
REMARK   76  A    between atoms: _178  and  _181
REMARK   77  A    between atoms: _181  and  _182
REMARK   78  A    between atoms: _185  and  _187
REMARK   79  A    between atoms: _187  and  _188
REMARK   80  A    between atoms: _187  and  _190
REMARK   81  A    between atoms: _190  and  _191
REMARK   82  A    between atoms: _195  and  _196
REMARK   83  A    between atoms: _201  and  _203
REMARK   84  A    between atoms: _203  and  _204
REMARK   85  A    between atoms: _203  and  _206
REMARK   86  A    between atoms: _209  and  _211
REMARK   87  A    between atoms: _211  and  _212
REMARK   88  A    between atoms: _211  and  _214
REMARK   89  A    between atoms: _214  and  _215
REMARK   90  A    between atoms: _220  and  _222
REMARK   91  A    between atoms: _222  and  _223
REMARK   92  A    between atoms: _222  and  _225
REMARK   93  A    between atoms: _225  and  _226
REMARK   94  A    between atoms: _229  and  _231
REMARK   95  A    between atoms: _231  and  _232
REMARK   96  A    between atoms: _231  and  _234
REMARK   97  A    between atoms: _234  and  _235
REMARK   98  A    between atoms: _238  and  _240
REMARK   99  A    between atoms: _240  and  _241
REMARK  100  A    between atoms: _243  and  _245
REMARK  101  A    between atoms: _245  and  _246
REMARK  102  A    between atoms: _245  and  _248
REMARK  103  A    between atoms: _248  and  _249
REMARK  104  A    between atoms: _249  and  _250
REMARK  105  A    between atoms: _250  and  _251
REMARK  106  A    between atoms: _260  and  _262
REMARK  107  A    between atoms: _262  and  _263
REMARK  108  A    between atoms: _262  and  _265
REMARK  109  A    between atoms: _265  and  _266
REMARK  110  A    between atoms: _271  and  _273
REMARK  111  A    between atoms: _273  and  _274
REMARK  112  A    between atoms: _273  and  _276
REMARK  113  A    between atoms: _276  and  _277
REMARK  114  A    between atoms: _277  and  _278
REMARK  115  A    between atoms: _278  and  _279
REMARK  116  A    between atoms: _288  and  _290
REMARK  117  A    between atoms: _290  and  _291
REMARK  118  A    between atoms: _290  and  _293
REMARK  119  A    between atoms: _293  and  _294
REMARK  120  A    between atoms: _297  and  _299
REMARK  121  A    between atoms: _299  and  _300
REMARK  122  A    between atoms: _299  and  _302
REMARK  123  A    between atoms: _302  and  _303
REMARK  124  A    between atoms: _306  and  _308
REMARK  125  A    between atoms: _308  and  _309
REMARK  126  A    between atoms: _308  and  _311
REMARK  127  A    between atoms: _311  and  _312
REMARK  128  A    between atoms: _315  and  _317
REMARK  129  A    between atoms: _317  and  _318
REMARK  130  A    between atoms: _317  and  _320
REMARK  131  A    between atoms: _320  and  _321
REMARK  132  A    between atoms: _324  and  _326
REMARK  133  A    between atoms: _326  and  _327
REMARK  134  A    between atoms: _329  and  _331
REMARK  135  A    between atoms: _331  and  _332
REMARK  136  A    between atoms: _335  and  _337
REMARK  137  A    between atoms: _337  and  _338
REMARK  138  A    between atoms: _337  and  _340
REMARK  139  A    between atoms: _340  and  _341
REMARK  140  A    between atoms: _344  and  _346
REMARK  141  A    between atoms: _346  and  _347
REMARK  142  A    between atoms: _346  and  _349
REMARK  143  A    between atoms: _349  and  _350
REMARK  144  A    between atoms: _353  and  _355
REMARK  145  A    between atoms: _355  and  _356
REMARK  146  A    between atoms: _355  and  _358
REMARK  147  A    between atoms: _358  and  _359
REMARK  148  A    between atoms: _362  and  _364
REMARK  149  A    between atoms: _364  and  _365
REMARK  150  A    between atoms: _364  and  _367
REMARK  151  A    between atoms: _370  and  _372
REMARK  152  A    between atoms: _372  and  _373
REMARK  153  A    between atoms: _372  and  _375
REMARK  154  A    between atoms: _375  and  _376
REMARK  155  A    between atoms: _376  and  _377
REMARK  156  A    between atoms: _377  and  _378
REMARK  157  A    between atoms: _378  and  _379
REMARK  158  A    between atoms: _383  and  _385
REMARK  159  A    between atoms: _385  and  _386
REMARK  160  A    between atoms: _385  and  _388
REMARK  161  A    between atoms: _388  and  _389
REMARK  162  A    between atoms: _389  and  _390
REMARK  163  A    between atoms: _392  and  _394
REMARK  164  A    between atoms: _394  and  _395
REMARK  165  A    between atoms: _394  and  _397
REMARK  166  A    between atoms: _397  and  _398
REMARK  167  A    between atoms: _401  and  _403
REMARK  168  A    between atoms: _403  and  _404
REMARK  169  A    between atoms: _406  and  _408
REMARK  170  A    between atoms: _408  and  _409
REMARK  171  A    between atoms: _411  and  _413
REMARK  172  A    between atoms: _413  and  _414
REMARK  173  A    between atoms: _413  and  _416
REMARK  174  A    between atoms: _416  and  _417
REMARK  175  A    between atoms: _420  and  _422
REMARK  176  A    between atoms: _422  and  _423
REMARK  177  A    between atoms: _425  and  _427
REMARK  178  A    between atoms: _427  and  _428
REMARK  179  A    between atoms: _430  and  _432
REMARK  180  A    between atoms: _432  and  _433
REMARK  181  A    between atoms: _432  and  _435
REMARK  182  A    between atoms: _435  and  _436
REMARK  183  A    between atoms: _442  and  _444
REMARK  184  A    between atoms: _444  and  _445
REMARK  185  A    between atoms: _444  and  _447
REMARK  186  A    between atoms: _447  and  _448
REMARK  187  A    between atoms: _451  and  _453
REMARK  188  A    between atoms: _453  and  _454
REMARK  189  A    between atoms: _453  and  _456
REMARK  190  A    between atoms: _459  and  _461
REMARK  191  A    between atoms: _461  and  _462
REMARK  192  A    between atoms: _461  and  _464
REMARK  193  A    between atoms: _464  and  _465
REMARK  194  A    between atoms: _468  and  _470
REMARK  195  A    between atoms: _470  and  _471
REMARK  196  A    between atoms: _470  and  _473
REMARK  197  A    between atoms: _473  and  _474
REMARK  198  A    between atoms: _478  and  _479
REMARK  199  A    between atoms: _484  and  _486
REMARK  200  A    between atoms: _486  and  _487
REMARK  201  A    between atoms: _486  and  _489
REMARK  202  A    between atoms: _492  and  _494
REMARK  203  A    between atoms: _494  and  _495
REMARK  204  A    between atoms: _494  and  _497
REMARK  205  A    between atoms: _497  and  _498
REMARK  206  A    between atoms: _503  and  _505
REMARK  207  A    between atoms: _505  and  _506
REMARK  208  A    between atoms: _505  and  _508
REMARK  209  A    between atoms: _508  and  _509
REMARK  210  A    between atoms: _512  and  _514
REMARK  211  A    between atoms: _514  and  _515
REMARK  212  A    between atoms: _514  and  _517
REMARK  213  A    between atoms: _517  and  _518
REMARK  214  A    between atoms: _521  and  _523
REMARK  215  A    between atoms: _523  and  _524
REMARK  216  A    between atoms: _526  and  _528
REMARK  217  A    between atoms: _528  and  _529
REMARK  218  A    between atoms: _528  and  _531
REMARK  219  A    between atoms: _531  and  _532
REMARK  220  A    between atoms: _532  and  _533
REMARK  221  A    between atoms: _533  and  _534
REMARK                            x       y       z     vdW  Elec       q    Type
REMARK                         _______ _______ _______ _____ _____    ______ ____
ROOT
ATOM      1  O   HOH     1      -5.620   5.840  12.125  0.00  0.00    +0.000 OA
ENDROOT
TORSDOF 0
REMARK  Name = ../refined-set-2016/1mtr/1mtr_pocket.pdb
REMARK  221 active torsions:
REMARK  status: ('A' for Active; 'I' for Inactive)
REMARK    1  A    between atoms: _1  and  _3
REMARK    2  A    between atoms: _3  and  _4
REMARK    3  A    between atoms: _3  and  _6
REMARK    4  A    between atoms: _6  and  _7
REMARK    5  A    between atoms: _7  and  _8
REMARK    6  A    between atoms: _8  and  _9
REMARK    7  A    between atoms: _18  and  _20
REMARK    8  A    between atoms: _20  and  _21
REMARK    9  A    between atoms: _20  and  _23
REMARK   10  A    between atoms: _23  and  _24
REMARK   11  A    between atoms: _27  and  _29
REMARK   12  A    between atoms: _29  and  _30
REMARK   13  A    between atoms: _29  and  _32
REMARK   14  A    between atoms: _32  and  _33
REMARK   15  A    between atoms: _36  and  _38
REMARK   16  A    between atoms: _38  and  _39
REMARK   17  A    between atoms: _38  and  _41
REMARK   18  A    between atoms: _41  and  _42
REMARK   19  A    between atoms: _45  and  _47
REMARK   20  A    between atoms: _47  and  _48
REMARK   21  A    between atoms: _47  and  _50
REMARK   22  A    between atoms: _50  and  _51
REMARK   23  A    between atoms: _54  and  _56
REMARK   24  A    between atoms: _56  and  _57
REMARK   25  A    between atoms: _59  and  _61
REMARK   26  A    between atoms: _61  and  _62
REMARK   27  A    between atoms: _65  and  _67
REMARK   28  A    between atoms: _67  and  _68
REMARK   29  A    between atoms: _67  and  _70
REMARK   30  A    between atoms: _70  and  _71
REMARK   31  A    between atoms: _74  and  _76
REMARK   32  A    between atoms: _76  and  _77
REMARK   33  A    between atoms: _76  and  _79
REMARK   34  A    between atoms: _79  and  _80
REMARK   35  A    between atoms: _83  and  _85
REMARK   36  A    between atoms: _85  and  _86
REMARK   37  A    between atoms: _85  and  _88
REMARK   38  A    between atoms: _88  and  _89
REMARK   39  A    between atoms: _92  and  _94
REMARK   40  A    between atoms: _94  and  _95
REMARK   41  A    between atoms: _94  and  _97
REMARK   42  A    between atoms: _100  and  _102
REMARK   43  A    between atoms: _102  and  _103
REMARK   44  A    between atoms: _102  and  _105
REMARK   45  A    between atoms: _105  and  _106
REMARK   46  A    between atoms: _106  and  _107
REMARK   47  A    between atoms: _109  and  _111
REMARK   48  A    between atoms: _111  and  _112
REMARK   49  A    between atoms: _111  and  _114
REMARK   50  A    between atoms: _114  and  _115
REMARK   51  A    between atoms: _118  and  _120
REMARK   52  A    between atoms: _120  and  _121
REMARK   53  A    between atoms: _123  and  _125
REMARK   54  A    between atoms: _125  and  _126
REMARK   55  A    between atoms: _128  and  _130
REMARK   56  A    between atoms: _130  and  _131
REMARK   57  A    between atoms: _130  and  _133
REMARK   58  A    between atoms: _133  and  _134
REMARK   59  A    between atoms: _137  and  _139
REMARK   60  A    between atoms: _139  and  _140
REMARK   61  A    between atoms: _142  and  _144
REMARK   62  A    between atoms: _144  and  _145
REMARK   63  A    between atoms: _147  and  _149
REMARK   64  A    between atoms: _149  and  _150
REMARK   65  A    between atoms: _149  and  _152
REMARK   66  A    between atoms: _152  and  _153
REMARK   67  A    between atoms: _159  and  _161
REMARK   68  A    between atoms: _161  and  _162
REMARK   69  A    between atoms: _161  and  _164
REMARK   70  A    between atoms: _164  and  _165
REMARK   71  A    between atoms: _168  and  _170
REMARK   72  A    between atoms: _170  and  _171
REMARK   73  A    between atoms: _170  and  _173
REMARK   74  A    between atoms: _176  and  _178
REMARK   75  A    between atoms: _178  and  _179
REMARK   76  A    between atoms: _178  and  _181
REMARK   77  A    between atoms: _181  and  _182
REMARK   78  A    between atoms: _185  and  _187
REMARK   79  A    between atoms: _187  and  _188
REMARK   80  A    between atoms: _187  and  _190
REMARK   81  A    between atoms: _190  and  _191
REMARK   82  A    between atoms: _195  and  _196
REMARK   83  A    between atoms: _201  and  _203
REMARK   84  A    between atoms: _203  and  _204
REMARK   85  A    between atoms: _203  and  _206
REMARK   86  A    between atoms: _209  and  _211
REMARK   87  A    between atoms: _211  and  _212
REMARK   88  A    between atoms: _211  and  _214
REMARK   89  A    between atoms: _214  and  _215
REMARK   90  A    between atoms: _220  and  _222
REMARK   91  A    between atoms: _222  and  _223
REMARK   92  A    between atoms: _222  and  _225
REMARK   93  A    between atoms: _225  and  _226
REMARK   94  A    between atoms: _229  and  _231
REMARK   95  A    between atoms: _231  and  _232
REMARK   96  A    between atoms: _231  and  _234
REMARK   97  A    between atoms: _234  and  _235
REMARK   98  A    between atoms: _238  and  _240
REMARK   99  A    between atoms: _240  and  _241
REMARK  100  A    between atoms: _243  and  _245
REMARK  101  A    between atoms: _245  and  _246
REMARK  102  A    between atoms: _245  and  _248
REMARK  103  A    between atoms: _248  and  _249
REMARK  104  A    between atoms: _249  and  _250
REMARK  105  A    between atoms: _250  and  _251
REMARK  106  A    between atoms: _260  and  _262
REMARK  107  A    between atoms: _262  and  _263
REMARK  108  A    between atoms: _262  and  _265
REMARK  109  A    between atoms: _265  and  _266
REMARK  110  A    between atoms: _271  and  _273
REMARK  111  A    between atoms: _273  and  _274
REMARK  112  A    between atoms: _273  and  _276
REMARK  113  A    between atoms: _276  and  _277
REMARK  114  A    between atoms: _277  and  _278
REMARK  115  A    between atoms: _278  and  _279
REMARK  116  A    between atoms: _288  and  _290
REMARK  117  A    between atoms: _290  and  _291
REMARK  118  A    between atoms: _290  and  _293
REMARK  119  A    between atoms: _293  and  _294
REMARK  120  A    between atoms: _297  and  _299
REMARK  121  A    between atoms: _299  and  _300
REMARK  122  A    between atoms: _299  and  _302
REMARK  123  A    between atoms: _302  and  _303
REMARK  124  A    between atoms: _306  and  _308
REMARK  125  A    between atoms: _308  and  _309
REMARK  126  A    between atoms: _308  and  _311
REMARK  127  A    between atoms: _311  and  _312
REMARK  128  A    between atoms: _315  and  _317
REMARK  129  A    between atoms: _317  and  _318
REMARK  130  A    between atoms: _317  and  _320
REMARK  131  A    between atoms: _320  and  _321
REMARK  132  A    between atoms: _324  and  _326
REMARK  133  A    between atoms: _326  and  _327
REMARK  134  A    between atoms: _329  and  _331
REMARK  135  A    between atoms: _331  and  _332
REMARK  136  A    between atoms: _335  and  _337
REMARK  137  A    between atoms: _337  and  _338
REMARK  138  A    between atoms: _337  and  _340
REMARK  139  A    between atoms: _340  and  _341
REMARK  140  A    between atoms: _344  and  _346
REMARK  141  A    between atoms: _346  and  _347
REMARK  142  A    between atoms: _346  and  _349
REMARK  143  A    between atoms: _349  and  _350
REMARK  144  A    between atoms: _353  and  _355
REMARK  145  A    between atoms: _355  and  _356
REMARK  146  A    between atoms: _355  and  _358
REMARK  147  A    between atoms: _358  and  _359
REMARK  148  A    between atoms: _362  and  _364
REMARK  149  A    between atoms: _364  and  _365
REMARK  150  A    between atoms: _364  and  _367
REMARK  151  A    between atoms: _370  and  _372
REMARK  152  A    between atoms: _372  and  _373
REMARK  153  A    between atoms: _372  and  _375
REMARK  154  A    between atoms: _375  and  _376
REMARK  155  A    between atoms: _376  and  _377
REMARK  156  A    between atoms: _377  and  _378
REMARK  157  A    between atoms: _378  and  _379
REMARK  158  A    between atoms: _383  and  _385
REMARK  159  A    between atoms: _385  and  _386
REMARK  160  A    between atoms: _385  and  _388
REMARK  161  A    between atoms: _388  and  _389
REMARK  162  A    between atoms: _389  and  _390
REMARK  163  A    between atoms: _392  and  _394
REMARK  164  A    between atoms: _394  and  _395
REMARK  165  A    between atoms: _394  and  _397
REMARK  166  A    between atoms: _397  and  _398
REMARK  167  A    between atoms: _401  and  _403
REMARK  168  A    between atoms: _403  and  _404
REMARK  169  A    between atoms: _406  and  _408
REMARK  170  A    between atoms: _408  and  _409
REMARK  171  A    between atoms: _411  and  _413
REMARK  172  A    between atoms: _413  and  _414
REMARK  173  A    between atoms: _413  and  _416
REMARK  174  A    between atoms: _416  and  _417
REMARK  175  A    between atoms: _420  and  _422
REMARK  176  A    between atoms: _422  and  _423
REMARK  177  A    between atoms: _425  and  _427
REMARK  178  A    between atoms: _427  and  _428
REMARK  179  A    between atoms: _430  and  _432
REMARK  180  A    between atoms: _432  and  _433
REMARK  181  A    between atoms: _432  and  _435
REMARK  182  A    between atoms: _435  and  _436
REMARK  183  A    between atoms: _442  and  _444
REMARK  184  A    between atoms: _444  and  _445
REMARK  185  A    between atoms: _444  and  _447
REMARK  186  A    between atoms: _447  and  _448
REMARK  187  A    between atoms: _451  and  _453
REMARK  188  A    between atoms: _453  and  _454
REMARK  189  A    between atoms: _453  and  _456
REMARK  190  A    between atoms: _459  and  _461
REMARK  191  A    between atoms: _461  and  _462
REMARK  192  A    between atoms: _461  and  _464
REMARK  193  A    between atoms: _464  and  _465
REMARK  194  A    between atoms: _468  and  _470
REMARK  195  A    between atoms: _470  and  _471
REMARK  196  A    between atoms: _470  and  _473
REMARK  197  A    between atoms: _473  and  _474
REMARK  198  A    between atoms: _478  and  _479
REMARK  199  A    between atoms: _484  and  _486
REMARK  200  A    between atoms: _486  and  _487
REMARK  201  A    between atoms: _486  and  _489
REMARK  202  A    between atoms: _492  and  _494
REMARK  203  A    between atoms: _494  and  _495
REMARK  204  A    between atoms: _494  and  _497
REMARK  205  A    between atoms: _497  and  _498
REMARK  206  A    between atoms: _503  and  _505
REMARK  207  A    between atoms: _505  and  _506
REMARK  208  A    between atoms: _505  and  _508
REMARK  209  A    between atoms: _508  and  _509
REMARK  210  A    between atoms: _512  and  _514
REMARK  211  A    between atoms: _514  and  _515
REMARK  212  A    between atoms: _514  and  _517
REMARK  213  A    between atoms: _517  and  _518
REMARK  214  A    between atoms: _521  and  _523
REMARK  215  A    between atoms: _523  and  _524
REMARK  216  A    between atoms: _526  and  _528
REMARK  217  A    between atoms: _528  and  _529
REMARK  218  A    between atoms: _528  and  _531
REMARK  219  A    between atoms: _531  and  _532
REMARK  220  A    between atoms: _532  and  _533
REMARK  221  A    between atoms: _533  and  _534
REMARK                            x       y       z     vdW  Elec       q    Type
REMARK                         _______ _______ _______ _____ _____    ______ ____
ROOT
ATOM      1  O   HOH     1       5.770   6.317  13.304  0.00  0.00    +0.000 OA
ENDROOT
TORSDOF 0
REMARK  Name = ../refined-set-2016/1mtr/1mtr_pocket.pdb
REMARK  221 active torsions:
REMARK  status: ('A' for Active; 'I' for Inactive)
REMARK    1  A    between atoms: _1  and  _3
REMARK    2  A    between atoms: _3  and  _4
REMARK    3  A    between atoms: _3  and  _6
REMARK    4  A    between atoms: _6  and  _7
REMARK    5  A    between atoms: _7  and  _8
REMARK    6  A    between atoms: _8  and  _9
REMARK    7  A    between atoms: _18  and  _20
REMARK    8  A    between atoms: _20  and  _21
REMARK    9  A    between atoms: _20  and  _23
REMARK   10  A    between atoms: _23  and  _24
REMARK   11  A    between atoms: _27  and  _29
REMARK   12  A    between atoms: _29  and  _30
REMARK   13  A    between atoms: _29  and  _32
REMARK   14  A    between atoms: _32  and  _33
REMARK   15  A    between atoms: _36  and  _38
REMARK   16  A    between atoms: _38  and  _39
REMARK   17  A    between atoms: _38  and  _41
REMARK   18  A    between atoms: _41  and  _42
REMARK   19  A    between atoms: _45  and  _47
REMARK   20  A    between atoms: _47  and  _48
REMARK   21  A    between atoms: _47  and  _50
REMARK   22  A    between atoms: _50  and  _51
REMARK   23  A    between atoms: _54  and  _56
REMARK   24  A    between atoms: _56  and  _57
REMARK   25  A    between atoms: _59  and  _61
REMARK   26  A    between atoms: _61  and  _62
REMARK   27  A    between atoms: _65  and  _67
REMARK   28  A    between atoms: _67  and  _68
REMARK   29  A    between atoms: _67  and  _70
REMARK   30  A    between atoms: _70  and  _71
REMARK   31  A    between atoms: _74  and  _76
REMARK   32  A    between atoms: _76  and  _77
REMARK   33  A    between atoms: _76  and  _79
REMARK   34  A    between atoms: _79  and  _80
REMARK   35  A    between atoms: _83  and  _85
REMARK   36  A    between atoms: _85  and  _86
REMARK   37  A    between atoms: _85  and  _88
REMARK   38  A    between atoms: _88  and  _89
REMARK   39  A    between atoms: _92  and  _94
REMARK   40  A    between atoms: _94  and  _95
REMARK   41  A    between atoms: _94  and  _97
REMARK   42  A    between atoms: _100  and  _102
REMARK   43  A    between atoms: _102  and  _103
REMARK   44  A    between atoms: _102  and  _105
REMARK   45  A    between atoms: _105  and  _106
REMARK   46  A    between atoms: _106  and  _107
REMARK   47  A    between atoms: _109  and  _111
REMARK   48  A    between atoms: _111  and  _112
REMARK   49  A    between atoms: _111  and  _114
REMARK   50  A    between atoms: _114  and  _115
REMARK   51  A    between atoms: _118  and  _120
REMARK   52  A    between atoms: _120  and  _121
REMARK   53  A    between atoms: _123  and  _125
REMARK   54  A    between atoms: _125  and  _126
REMARK   55  A    between atoms: _128  and  _130
REMARK   56  A    between atoms: _130  and  _131
REMARK   57  A    between atoms: _130  and  _133
REMARK   58  A    between atoms: _133  and  _134
REMARK   59  A    between atoms: _137  and  _139
REMARK   60  A    between atoms: _139  and  _140
REMARK   61  A    between atoms: _142  and  _144
REMARK   62  A    between atoms: _144  and  _145
REMARK   63  A    between atoms: _147  and  _149
REMARK   64  A    between atoms: _149  and  _150
REMARK   65  A    between atoms: _149  and  _152
REMARK   66  A    between atoms: _152  and  _153
REMARK   67  A    between atoms: _159  and  _161
REMARK   68  A    between atoms: _161  and  _162
REMARK   69  A    between atoms: _161  and  _164
REMARK   70  A    between atoms: _164  and  _165
REMARK   71  A    between atoms: _168  and  _170
REMARK   72  A    between atoms: _170  and  _171
REMARK   73  A    between atoms: _170  and  _173
REMARK   74  A    between atoms: _176  and  _178
REMARK   75  A    between atoms: _178  and  _179
REMARK   76  A    between atoms: _178  and  _181
REMARK   77  A    between atoms: _181  and  _182
REMARK   78  A    between atoms: _185  and  _187
REMARK   79  A    between atoms: _187  and  _188
REMARK   80  A    between atoms: _187  and  _190
REMARK   81  A    between atoms: _190  and  _191
REMARK   82  A    between atoms: _195  and  _196
REMARK   83  A    between atoms: _201  and  _203
REMARK   84  A    between atoms: _203  and  _204
REMARK   85  A    between atoms: _203  and  _206
REMARK   86  A    between atoms: _209  and  _211
REMARK   87  A    between atoms: _211  and  _212
REMARK   88  A    between atoms: _211  and  _214
REMARK   89  A    between atoms: _214  and  _215
REMARK   90  A    between atoms: _220  and  _222
REMARK   91  A    between atoms: _222  and  _223
REMARK   92  A    between atoms: _222  and  _225
REMARK   93  A    between atoms: _225  and  _226
REMARK   94  A    between atoms: _229  and  _231
REMARK   95  A    between atoms: _231  and  _232
REMARK   96  A    between atoms: _231  and  _234
REMARK   97  A    between atoms: _234  and  _235
REMARK   98  A    between atoms: _238  and  _240
REMARK   99  A    between atoms: _240  and  _241
REMARK  100  A    between atoms: _243  and  _245
REMARK  101  A    between atoms: _245  and  _246
REMARK  102  A    between atoms: _245  and  _248
REMARK  103  A    between atoms: _248  and  _249
REMARK  104  A    between atoms: _249  and  _250
REMARK  105  A    between atoms: _250  and  _251
REMARK  106  A    between atoms: _260  and  _262
REMARK  107  A    between atoms: _262  and  _263
REMARK  108  A    between atoms: _262  and  _265
REMARK  109  A    between atoms: _265  and  _266
REMARK  110  A    between atoms: _271  and  _273
REMARK  111  A    between atoms: _273  and  _274
REMARK  112  A    between atoms: _273  and  _276
REMARK  113  A    between atoms: _276  and  _277
REMARK  114  A    between atoms: _277  and  _278
REMARK  115  A    between atoms: _278  and  _279
REMARK  116  A    between atoms: _288  and  _290
REMARK  117  A    between atoms: _290  and  _291
REMARK  118  A    between atoms: _290  and  _293
REMARK  119  A    between atoms: _293  and  _294
REMARK  120  A    between atoms: _297  and  _299
REMARK  121  A    between atoms: _299  and  _300
REMARK  122  A    between atoms: _299  and  _302
REMARK  123  A    between atoms: _302  and  _303
REMARK  124  A    between atoms: _306  and  _308
REMARK  125  A    between atoms: _308  and  _309
REMARK  126  A    between atoms: _308  and  _311
REMARK  127  A    between atoms: _311  and  _312
REMARK  128  A    between atoms: _315  and  _317
REMARK  129  A    between atoms: _317  and  _318
REMARK  130  A    between atoms: _317  and  _320
REMARK  131  A    between atoms: _320  and  _321
REMARK  132  A    between atoms: _324  and  _326
REMARK  133  A    between atoms: _326  and  _327
REMARK  134  A    between atoms: _329  and  _331
REMARK  135  A    between atoms: _331  and  _332
REMARK  136  A    between atoms: _335  and  _337
REMARK  137  A    between atoms: _337  and  _338
REMARK  138  A    between atoms: _337  and  _340
REMARK  139  A    between atoms: _340  and  _341
REMARK  140  A    between atoms: _344  and  _346
REMARK  141  A    between atoms: _346  and  _347
REMARK  142  A    between atoms: _346  and  _349
REMARK  143  A    between atoms: _349  and  _350
REMARK  144  A    between atoms: _353  and  _355
REMARK  145  A    between atoms: _355  and  _356
REMARK  146  A    between atoms: _355  and  _358
REMARK  147  A    between atoms: _358  and  _359
REMARK  148  A    between atoms: _362  and  _364
REMARK  149  A    between atoms: _364  and  _365
REMARK  150  A    between atoms: _364  and  _367
REMARK  151  A    between atoms: _370  and  _372
REMARK  152  A    between atoms: _372  and  _373
REMARK  153  A    between atoms: _372  and  _375
REMARK  154  A    between atoms: _375  and  _376
REMARK  155  A    between atoms: _376  and  _377
REMARK  156  A    between atoms: _377  and  _378
REMARK  157  A    between atoms: _378  and  _379
REMARK  158  A    between atoms: _383  and  _385
REMARK  159  A    between atoms: _385  and  _386
REMARK  160  A    between atoms: _385  and  _388
REMARK  161  A    between atoms: _388  and  _389
REMARK  162  A    between atoms: _389  and  _390
REMARK  163  A    between atoms: _392  and  _394
REMARK  164  A    between atoms: _394  and  _395
REMARK  165  A    between atoms: _394  and  _397
REMARK  166  A    between atoms: _397  and  _398
REMARK  167  A    between atoms: _401  and  _403
REMARK  168  A    between atoms: _403  and  _404
REMARK  169  A    between atoms: _406  and  _408
REMARK  170  A    between atoms: _408  and  _409
REMARK  171  A    between atoms: _411  and  _413
REMARK  172  A    between atoms: _413  and  _414
REMARK  173  A    between atoms: _413  and  _416
REMARK  174  A    between atoms: _416  and  _417
REMARK  175  A    between atoms: _420  and  _422
REMARK  176  A    between atoms: _422  and  _423
REMARK  177  A    between atoms: _425  and  _427
REMARK  178  A    between atoms: _427  and  _428
REMARK  179  A    between atoms: _430  and  _432
REMARK  180  A    between atoms: _432  and  _433
REMARK  181  A    between atoms: _432  and  _435
REMARK  182  A    between atoms: _435  and  _436
REMARK  183  A    between atoms: _442  and  _444
REMARK  184  A    between atoms: _444  and  _445
REMARK  185  A    between atoms: _444  and  _447
REMARK  186  A    between atoms: _447  and  _448
REMARK  187  A    between atoms: _451  and  _453
REMARK  188  A    between atoms: _453  and  _454
REMARK  189  A    between atoms: _453  and  _456
REMARK  190  A    between atoms: _459  and  _461
REMARK  191  A    between atoms: _461  and  _462
REMARK  192  A    between atoms: _461  and  _464
REMARK  193  A    between atoms: _464  and  _465
REMARK  194  A    between atoms: _468  and  _470
REMARK  195  A    between atoms: _470  and  _471
REMARK  196  A    between atoms: _470  and  _473
REMARK  197  A    between atoms: _473  and  _474
REMARK  198  A    between atoms: _478  and  _479
REMARK  199  A    between atoms: _484  and  _486
REMARK  200  A    between atoms: _486  and  _487
REMARK  201  A    between atoms: _486  and  _489
REMARK  202  A    between atoms: _492  and  _494
REMARK  203  A    between atoms: _494  and  _495
REMARK  204  A    between atoms: _494  and  _497
REMARK  205  A    between atoms: _497  and  _498
REMARK  206  A    between atoms: _503  and  _505
REMARK  207  A    between atoms: _505  and  _506
REMARK  208  A    between atoms: _505  and  _508
REMARK  209  A    between atoms: _508  and  _509
REMARK  210  A    between atoms: _512  and  _514
REMARK  211  A    between atoms: _514  and  _515
REMARK  212  A    between atoms: _514  and  _517
REMARK  213  A    between atoms: _517  and  _518
REMARK  214  A    between atoms: _521  and  _523
REMARK  215  A    between atoms: _523  and  _524
REMARK  216  A    between atoms: _526  and  _528
REMARK  217  A    between atoms: _528  and  _529
REMARK  218  A    between atoms: _528  and  _531
REMARK  219  A    between atoms: _531  and  _532
REMARK  220  A    between atoms: _532  and  _533
REMARK  221  A    between atoms: _533  and  _534
REMARK                            x       y       z     vdW  Elec       q    Type
REMARK                         _______ _______ _______ _____ _____    ______ ____
ROOT
ATOM      1  O   HOH     1       5.058   7.571  15.696  0.00  0.00    +0.000 OA
ENDROOT
TORSDOF 0
REMARK  Name = ../refined-set-2016/1mtr/1mtr_pocket.pdb
REMARK  221 active torsions:
REMARK  status: ('A' for Active; 'I' for Inactive)
REMARK    1  A    between atoms: _1  and  _3
REMARK    2  A    between atoms: _3  and  _4
REMARK    3  A    between atoms: _3  and  _6
REMARK    4  A    between atoms: _6  and  _7
REMARK    5  A    between atoms: _7  and  _8
REMARK    6  A    between atoms: _8  and  _9
REMARK    7  A    between atoms: _18  and  _20
REMARK    8  A    between atoms: _20  and  _21
REMARK    9  A    between atoms: _20  and  _23
REMARK   10  A    between atoms: _23  and  _24
REMARK   11  A    between atoms: _27  and  _29
REMARK   12  A    between atoms: _29  and  _30
REMARK   13  A    between atoms: _29  and  _32
REMARK   14  A    between atoms: _32  and  _33
REMARK   15  A    between atoms: _36  and  _38
REMARK   16  A    between atoms: _38  and  _39
REMARK   17  A    between atoms: _38  and  _41
REMARK   18  A    between atoms: _41  and  _42
REMARK   19  A    between atoms: _45  and  _47
REMARK   20  A    between atoms: _47  and  _48
REMARK   21  A    between atoms: _47  and  _50
REMARK   22  A    between atoms: _50  and  _51
REMARK   23  A    between atoms: _54  and  _56
REMARK   24  A    between atoms: _56  and  _57
REMARK   25  A    between atoms: _59  and  _61
REMARK   26  A    between atoms: _61  and  _62
REMARK   27  A    between atoms: _65  and  _67
REMARK   28  A    between atoms: _67  and  _68
REMARK   29  A    between atoms: _67  and  _70
REMARK   30  A    between atoms: _70  and  _71
REMARK   31  A    between atoms: _74  and  _76
REMARK   32  A    between atoms: _76  and  _77
REMARK   33  A    between atoms: _76  and  _79
REMARK   34  A    between atoms: _79  and  _80
REMARK   35  A    between atoms: _83  and  _85
REMARK   36  A    between atoms: _85  and  _86
REMARK   37  A    between atoms: _85  and  _88
REMARK   38  A    between atoms: _88  and  _89
REMARK   39  A    between atoms: _92  and  _94
REMARK   40  A    between atoms: _94  and  _95
REMARK   41  A    between atoms: _94  and  _97
REMARK   42  A    between atoms: _100  and  _102
REMARK   43  A    between atoms: _102  and  _103
REMARK   44  A    between atoms: _102  and  _105
REMARK   45  A    between atoms: _105  and  _106
REMARK   46  A    between atoms: _106  and  _107
REMARK   47  A    between atoms: _109  and  _111
REMARK   48  A    between atoms: _111  and  _112
REMARK   49  A    between atoms: _111  and  _114
REMARK   50  A    between atoms: _114  and  _115
REMARK   51  A    between atoms: _118  and  _120
REMARK   52  A    between atoms: _120  and  _121
REMARK   53  A    between atoms: _123  and  _125
REMARK   54  A    between atoms: _125  and  _126
REMARK   55  A    between atoms: _128  and  _130
REMARK   56  A    between atoms: _130  and  _131
REMARK   57  A    between atoms: _130  and  _133
REMARK   58  A    between atoms: _133  and  _134
REMARK   59  A    between atoms: _137  and  _139
REMARK   60  A    between atoms: _139  and  _140
REMARK   61  A    between atoms: _142  and  _144
REMARK   62  A    between atoms: _144  and  _145
REMARK   63  A    between atoms: _147  and  _149
REMARK   64  A    between atoms: _149  and  _150
REMARK   65  A    between atoms: _149  and  _152
REMARK   66  A    between atoms: _152  and  _153
REMARK   67  A    between atoms: _159  and  _161
REMARK   68  A    between atoms: _161  and  _162
REMARK   69  A    between atoms: _161  and  _164
REMARK   70  A    between atoms: _164  and  _165
REMARK   71  A    between atoms: _168  and  _170
REMARK   72  A    between atoms: _170  and  _171
REMARK   73  A    between atoms: _170  and  _173
REMARK   74  A    between atoms: _176  and  _178
REMARK   75  A    between atoms: _178  and  _179
REMARK   76  A    between atoms: _178  and  _181
REMARK   77  A    between atoms: _181  and  _182
REMARK   78  A    between atoms: _185  and  _187
REMARK   79  A    between atoms: _187  and  _188
REMARK   80  A    between atoms: _187  and  _190
REMARK   81  A    between atoms: _190  and  _191
REMARK   82  A    between atoms: _195  and  _196
REMARK   83  A    between atoms: _201  and  _203
REMARK   84  A    between atoms: _203  and  _204
REMARK   85  A    between atoms: _203  and  _206
REMARK   86  A    between atoms: _209  and  _211
REMARK   87  A    between atoms: _211  and  _212
REMARK   88  A    between atoms: _211  and  _214
REMARK   89  A    between atoms: _214  and  _215
REMARK   90  A    between atoms: _220  and  _222
REMARK   91  A    between atoms: _222  and  _223
REMARK   92  A    between atoms: _222  and  _225
REMARK   93  A    between atoms: _225  and  _226
REMARK   94  A    between atoms: _229  and  _231
REMARK   95  A    between atoms: _231  and  _232
REMARK   96  A    between atoms: _231  and  _234
REMARK   97  A    between atoms: _234  and  _235
REMARK   98  A    between atoms: _238  and  _240
REMARK   99  A    between atoms: _240  and  _241
REMARK  100  A    between atoms: _243  and  _245
REMARK  101  A    between atoms: _245  and  _246
REMARK  102  A    between atoms: _245  and  _248
REMARK  103  A    between atoms: _248  and  _249
REMARK  104  A    between atoms: _249  and  _250
REMARK  105  A    between atoms: _250  and  _251
REMARK  106  A    between atoms: _260  and  _262
REMARK  107  A    between atoms: _262  and  _263
REMARK  108  A    between atoms: _262  and  _265
REMARK  109  A    between atoms: _265  and  _266
REMARK  110  A    between atoms: _271  and  _273
REMARK  111  A    between atoms: _273  and  _274
REMARK  112  A    between atoms: _273  and  _276
REMARK  113  A    between atoms: _276  and  _277
REMARK  114  A    between atoms: _277  and  _278
REMARK  115  A    between atoms: _278  and  _279
REMARK  116  A    between atoms: _288  and  _290
REMARK  117  A    between atoms: _290  and  _291
REMARK  118  A    between atoms: _290  and  _293
REMARK  119  A    between atoms: _293  and  _294
REMARK  120  A    between atoms: _297  and  _299
REMARK  121  A    between atoms: _299  and  _300
REMARK  122  A    between atoms: _299  and  _302
REMARK  123  A    between atoms: _302  and  _303
REMARK  124  A    between atoms: _306  and  _308
REMARK  125  A    between atoms: _308  and  _309
REMARK  126  A    between atoms: _308  and  _311
REMARK  127  A    between atoms: _311  and  _312
REMARK  128  A    between atoms: _315  and  _317
REMARK  129  A    between atoms: _317  and  _318
REMARK  130  A    between atoms: _317  and  _320
REMARK  131  A    between atoms: _320  and  _321
REMARK  132  A    between atoms: _324  and  _326
REMARK  133  A    between atoms: _326  and  _327
REMARK  134  A    between atoms: _329  and  _331
REMARK  135  A    between atoms: _331  and  _332
REMARK  136  A    between atoms: _335  and  _337
REMARK  137  A    between atoms: _337  and  _338
REMARK  138  A    between atoms: _337  and  _340
REMARK  139  A    between atoms: _340  and  _341
REMARK  140  A    between atoms: _344  and  _346
REMARK  141  A    between atoms: _346  and  _347
REMARK  142  A    between atoms: _346  and  _349
REMARK  143  A    between atoms: _349  and  _350
REMARK  144  A    between atoms: _353  and  _355
REMARK  145  A    between atoms: _355  and  _356
REMARK  146  A    between atoms: _355  and  _358
REMARK  147  A    between atoms: _358  and  _359
REMARK  148  A    between atoms: _362  and  _364
REMARK  149  A    between atoms: _364  and  _365
REMARK  150  A    between atoms: _364  and  _367
REMARK  151  A    between atoms: _370  and  _372
REMARK  152  A    between atoms: _372  and  _373
REMARK  153  A    between atoms: _372  and  _375
REMARK  154  A    between atoms: _375  and  _376
REMARK  155  A    between atoms: _376  and  _377
REMARK  156  A    between atoms: _377  and  _378
REMARK  157  A    between atoms: _378  and  _379
REMARK  158  A    between atoms: _383  and  _385
REMARK  159  A    between atoms: _385  and  _386
REMARK  160  A    between atoms: _385  and  _388
REMARK  161  A    between atoms: _388  and  _389
REMARK  162  A    between atoms: _389  and  _390
REMARK  163  A    between atoms: _392  and  _394
REMARK  164  A    between atoms: _394  and  _395
REMARK  165  A    between atoms: _394  and  _397
REMARK  166  A    between atoms: _397  and  _398
REMARK  167  A    between atoms: _401  and  _403
REMARK  168  A    between atoms: _403  and  _404
REMARK  169  A    between atoms: _406  and  _408
REMARK  170  A    between atoms: _408  and  _409
REMARK  171  A    between atoms: _411  and  _413
REMARK  172  A    between atoms: _413  and  _414
REMARK  173  A    between atoms: _413  and  _416
REMARK  174  A    between atoms: _416  and  _417
REMARK  175  A    between atoms: _420  and  _422
REMARK  176  A    between atoms: _422  and  _423
REMARK  177  A    between atoms: _425  and  _427
REMARK  178  A    between atoms: _427  and  _428
REMARK  179  A    between atoms: _430  and  _432
REMARK  180  A    between atoms: _432  and  _433
REMARK  181  A    between atoms: _432  and  _435
REMARK  182  A    between atoms: _435  and  _436
REMARK  183  A    between atoms: _442  and  _444
REMARK  184  A    between atoms: _444  and  _445
REMARK  185  A    between atoms: _444  and  _447
REMARK  186  A    between atoms: _447  and  _448
REMARK  187  A    between atoms: _451  and  _453
REMARK  188  A    between atoms: _453  and  _454
REMARK  189  A    between atoms: _453  and  _456
REMARK  190  A    between atoms: _459  and  _461
REMARK  191  A    between atoms: _461  and  _462
REMARK  192  A    between atoms: _461  and  _464
REMARK  193  A    between atoms: _464  and  _465
REMARK  194  A    between atoms: _468  and  _470
REMARK  195  A    between atoms: _470  and  _471
REMARK  196  A    between atoms: _470  and  _473
REMARK  197  A    between atoms: _473  and  _474
REMARK  198  A    between atoms: _478  and  _479
REMARK  199  A    between atoms: _484  and  _486
REMARK  200  A    between atoms: _486  and  _487
REMARK  201  A    between atoms: _486  and  _489
REMARK  202  A    between atoms: _492  and  _494
REMARK  203  A    between atoms: _494  and  _495
REMARK  204  A    between atoms: _494  and  _497
REMARK  205  A    between atoms: _497  and  _498
REMARK  206  A    between atoms: _503  and  _505
REMARK  207  A    between atoms: _505  and  _506
REMARK  208  A    between atoms: _505  and  _508
REMARK  209  A    between atoms: _508  and  _509
REMARK  210  A    between atoms: _512  and  _514
REMARK  211  A    between atoms: _514  and  _515
REMARK  212  A    between atoms: _514  and  _517
REMARK  213  A    between atoms: _517  and  _518
REMARK  214  A    between atoms: _521  and  _523
REMARK  215  A    between atoms: _523  and  _524
REMARK  216  A    between atoms: _526  and  _528
REMARK  217  A    between atoms: _528  and  _529
REMARK  218  A    between atoms: _528  and  _531
REMARK  219  A    between atoms: _531  and  _532
REMARK  220  A    between atoms: _532  and  _533
REMARK  221  A    between atoms: _533  and  _534
REMARK                            x       y       z     vdW  Elec       q    Type
REMARK                         _______ _______ _______ _____ _____    ______ ____
ROOT
ATOM      1  O   HOH     1       2.218   3.551   5.673  0.00  0.00    +0.000 OA
ENDROOT
TORSDOF 0
REMARK  Name = ../refined-set-2016/1mtr/1mtr_pocket.pdb
REMARK  221 active torsions:
REMARK  status: ('A' for Active; 'I' for Inactive)
REMARK    1  A    between atoms: _1  and  _3
REMARK    2  A    between atoms: _3  and  _4
REMARK    3  A    between atoms: _3  and  _6
REMARK    4  A    between atoms: _6  and  _7
REMARK    5  A    between atoms: _7  and  _8
REMARK    6  A    between atoms: _8  and  _9
REMARK    7  A    between atoms: _18  and  _20
REMARK    8  A    between atoms: _20  and  _21
REMARK    9  A    between atoms: _20  and  _23
REMARK   10  A    between atoms: _23  and  _24
REMARK   11  A    between atoms: _27  and  _29
REMARK   12  A    between atoms: _29  and  _30
REMARK   13  A    between atoms: _29  and  _32
REMARK   14  A    between atoms: _32  and  _33
REMARK   15  A    between atoms: _36  and  _38
REMARK   16  A    between atoms: _38  and  _39
REMARK   17  A    between atoms: _38  and  _41
REMARK   18  A    between atoms: _41  and  _42
REMARK   19  A    between atoms: _45  and  _47
REMARK   20  A    between atoms: _47  and  _48
REMARK   21  A    between atoms: _47  and  _50
REMARK   22  A    between atoms: _50  and  _51
REMARK   23  A    between atoms: _54  and  _56
REMARK   24  A    between atoms: _56  and  _57
REMARK   25  A    between atoms: _59  and  _61
REMARK   26  A    between atoms: _61  and  _62
REMARK   27  A    between atoms: _65  and  _67
REMARK   28  A    between atoms: _67  and  _68
REMARK   29  A    between atoms: _67  and  _70
REMARK   30  A    between atoms: _70  and  _71
REMARK   31  A    between atoms: _74  and  _76
REMARK   32  A    between atoms: _76  and  _77
REMARK   33  A    between atoms: _76  and  _79
REMARK   34  A    between atoms: _79  and  _80
REMARK   35  A    between atoms: _83  and  _85
REMARK   36  A    between atoms: _85  and  _86
REMARK   37  A    between atoms: _85  and  _88
REMARK   38  A    between atoms: _88  and  _89
REMARK   39  A    between atoms: _92  and  _94
REMARK   40  A    between atoms: _94  and  _95
REMARK   41  A    between atoms: _94  and  _97
REMARK   42  A    between atoms: _100  and  _102
REMARK   43  A    between atoms: _102  and  _103
REMARK   44  A    between atoms: _102  and  _105
REMARK   45  A    between atoms: _105  and  _106
REMARK   46  A    between atoms: _106  and  _107
REMARK   47  A    between atoms: _109  and  _111
REMARK   48  A    between atoms: _111  and  _112
REMARK   49  A    between atoms: _111  and  _114
REMARK   50  A    between atoms: _114  and  _115
REMARK   51  A    between atoms: _118  and  _120
REMARK   52  A    between atoms: _120  and  _121
REMARK   53  A    between atoms: _123  and  _125
REMARK   54  A    between atoms: _125  and  _126
REMARK   55  A    between atoms: _128  and  _130
REMARK   56  A    between atoms: _130  and  _131
REMARK   57  A    between atoms: _130  and  _133
REMARK   58  A    between atoms: _133  and  _134
REMARK   59  A    between atoms: _137  and  _139
REMARK   60  A    between atoms: _139  and  _140
REMARK   61  A    between atoms: _142  and  _144
REMARK   62  A    between atoms: _144  and  _145
REMARK   63  A    between atoms: _147  and  _149
REMARK   64  A    between atoms: _149  and  _150
REMARK   65  A    between atoms: _149  and  _152
REMARK   66  A    between atoms: _152  and  _153
REMARK   67  A    between atoms: _159  and  _161
REMARK   68  A    between atoms: _161  and  _162
REMARK   69  A    between atoms: _161  and  _164
REMARK   70  A    between atoms: _164  and  _165
REMARK   71  A    between atoms: _168  and  _170
REMARK   72  A    between atoms: _170  and  _171
REMARK   73  A    between atoms: _170  and  _173
REMARK   74  A    between atoms: _176  and  _178
REMARK   75  A    between atoms: _178  and  _179
REMARK   76  A    between atoms: _178  and  _181
REMARK   77  A    between atoms: _181  and  _182
REMARK   78  A    between atoms: _185  and  _187
REMARK   79  A    between atoms: _187  and  _188
REMARK   80  A    between atoms: _187  and  _190
REMARK   81  A    between atoms: _190  and  _191
REMARK   82  A    between atoms: _195  and  _196
REMARK   83  A    between atoms: _201  and  _203
REMARK   84  A    between atoms: _203  and  _204
REMARK   85  A    between atoms: _203  and  _206
REMARK   86  A    between atoms: _209  and  _211
REMARK   87  A    between atoms: _211  and  _212
REMARK   88  A    between atoms: _211  and  _214
REMARK   89  A    between atoms: _214  and  _215
REMARK   90  A    between atoms: _220  and  _222
REMARK   91  A    between atoms: _222  and  _223
REMARK   92  A    between atoms: _222  and  _225
REMARK   93  A    between atoms: _225  and  _226
REMARK   94  A    between atoms: _229  and  _231
REMARK   95  A    between atoms: _231  and  _232
REMARK   96  A    between atoms: _231  and  _234
REMARK   97  A    between atoms: _234  and  _235
REMARK   98  A    between atoms: _238  and  _240
REMARK   99  A    between atoms: _240  and  _241
REMARK  100  A    between atoms: _243  and  _245
REMARK  101  A    between atoms: _245  and  _246
REMARK  102  A    between atoms: _245  and  _248
REMARK  103  A    between atoms: _248  and  _249
REMARK  104  A    between atoms: _249  and  _250
REMARK  105  A    between atoms: _250  and  _251
REMARK  106  A    between atoms: _260  and  _262
REMARK  107  A    between atoms: _262  and  _263
REMARK  108  A    between atoms: _262  and  _265
REMARK  109  A    between atoms: _265  and  _266
REMARK  110  A    between atoms: _271  and  _273
REMARK  111  A    between atoms: _273  and  _274
REMARK  112  A    between atoms: _273  and  _276
REMARK  113  A    between atoms: _276  and  _277
REMARK  114  A    between atoms: _277  and  _278
REMARK  115  A    between atoms: _278  and  _279
REMARK  116  A    between atoms: _288  and  _290
REMARK  117  A    between atoms: _290  and  _291
REMARK  118  A    between atoms: _290  and  _293
REMARK  119  A    between atoms: _293  and  _294
REMARK  120  A    between atoms: _297  and  _299
REMARK  121  A    between atoms: _299  and  _300
REMARK  122  A    between atoms: _299  and  _302
REMARK  123  A    between atoms: _302  and  _303
REMARK  124  A    between atoms: _306  and  _308
REMARK  125  A    between atoms: _308  and  _309
REMARK  126  A    between atoms: _308  and  _311
REMARK  127  A    between atoms: _311  and  _312
REMARK  128  A    between atoms: _315  and  _317
REMARK  129  A    between atoms: _317  and  _318
REMARK  130  A    between atoms: _317  and  _320
REMARK  131  A    between atoms: _320  and  _321
REMARK  132  A    between atoms: _324  and  _326
REMARK  133  A    between atoms: _326  and  _327
REMARK  134  A    between atoms: _329  and  _331
REMARK  135  A    between atoms: _331  and  _332
REMARK  136  A    between atoms: _335  and  _337
REMARK  137  A    between atoms: _337  and  _338
REMARK  138  A    between atoms: _337  and  _340
REMARK  139  A    between atoms: _340  and  _341
REMARK  140  A    between atoms: _344  and  _346
REMARK  141  A    between atoms: _346  and  _347
REMARK  142  A    between atoms: _346  and  _349
REMARK  143  A    between atoms: _349  and  _350
REMARK  144  A    between atoms: _353  and  _355
REMARK  145  A    between atoms: _355  and  _356
REMARK  146  A    between atoms: _355  and  _358
REMARK  147  A    between atoms: _358  and  _359
REMARK  148  A    between atoms: _362  and  _364
REMARK  149  A    between atoms: _364  and  _365
REMARK  150  A    between atoms: _364  and  _367
REMARK  151  A    between atoms: _370  and  _372
REMARK  152  A    between atoms: _372  and  _373
REMARK  153  A    between atoms: _372  and  _375
REMARK  154  A    between atoms: _375  and  _376
REMARK  155  A    between atoms: _376  and  _377
REMARK  156  A    between atoms: _377  and  _378
REMARK  157  A    between atoms: _378  and  _379
REMARK  158  A    between atoms: _383  and  _385
REMARK  159  A    between atoms: _385  and  _386
REMARK  160  A    between atoms: _385  and  _388
REMARK  161  A    between atoms: _388  and  _389
REMARK  162  A    between atoms: _389  and  _390
REMARK  163  A    between atoms: _392  and  _394
REMARK  164  A    between atoms: _394  and  _395
REMARK  165  A    between atoms: _394  and  _397
REMARK  166  A    between atoms: _397  and  _398
REMARK  167  A    between atoms: _401  and  _403
REMARK  168  A    between atoms: _403  and  _404
REMARK  169  A    between atoms: _406  and  _408
REMARK  170  A    between atoms: _408  and  _409
REMARK  171  A    between atoms: _411  and  _413
REMARK  172  A    between atoms: _413  and  _414
REMARK  173  A    between atoms: _413  and  _416
REMARK  174  A    between atoms: _416  and  _417
REMARK  175  A    between atoms: _420  and  _422
REMARK  176  A    between atoms: _422  and  _423
REMARK  177  A    between atoms: _425  and  _427
REMARK  178  A    between atoms: _427  and  _428
REMARK  179  A    between atoms: _430  and  _432
REMARK  180  A    between atoms: _432  and  _433
REMARK  181  A    between atoms: _432  and  _435
REMARK  182  A    between atoms: _435  and  _436
REMARK  183  A    between atoms: _442  and  _444
REMARK  184  A    between atoms: _444  and  _445
REMARK  185  A    between atoms: _444  and  _447
REMARK  186  A    between atoms: _447  and  _448
REMARK  187  A    between atoms: _451  and  _453
REMARK  188  A    between atoms: _453  and  _454
REMARK  189  A    between atoms: _453  and  _456
REMARK  190  A    between atoms: _459  and  _461
REMARK  191  A    between atoms: _461  and  _462
REMARK  192  A    between atoms: _461  and  _464
REMARK  193  A    between atoms: _464  and  _465
REMARK  194  A    between atoms: _468  and  _470
REMARK  195  A    between atoms: _470  and  _471
REMARK  196  A    between atoms: _470  and  _473
REMARK  197  A    between atoms: _473  and  _474
REMARK  198  A    between atoms: _478  and  _479
REMARK  199  A    between atoms: _484  and  _486
REMARK  200  A    between atoms: _486  and  _487
REMARK  201  A    between atoms: _486  and  _489
REMARK  202  A    between atoms: _492  and  _494
REMARK  203  A    between atoms: _494  and  _495
REMARK  204  A    between atoms: _494  and  _497
REMARK  205  A    between atoms: _497  and  _498
REMARK  206  A    between atoms: _503  and  _505
REMARK  207  A    between atoms: _505  and  _506
REMARK  208  A    between atoms: _505  and  _508
REMARK  209  A    between atoms: _508  and  _509
REMARK  210  A    between atoms: _512  and  _514
REMARK  211  A    between atoms: _514  and  _515
REMARK  212  A    between atoms: _514  and  _517
REMARK  213  A    between atoms: _517  and  _518
REMARK  214  A    between atoms: _521  and  _523
REMARK  215  A    between atoms: _523  and  _524
REMARK  216  A    between atoms: _526  and  _528
REMARK  217  A    between atoms: _528  and  _529
REMARK  218  A    between atoms: _528  and  _531
REMARK  219  A    between atoms: _531  and  _532
REMARK  220  A    between atoms: _532  and  _533
REMARK  221  A    between atoms: _533  and  _534
REMARK                            x       y       z     vdW  Elec       q    Type
REMARK                         _______ _______ _______ _____ _____    ______ ____
ROOT
ATOM      1  O   HOH     1       3.677   4.020   8.935  0.00  0.00    +0.000 OA
ENDROOT
TORSDOF 0
REMARK  Name = ../refined-set-2016/1mtr/1mtr_pocket.pdb
REMARK  221 active torsions:
REMARK  status: ('A' for Active; 'I' for Inactive)
REMARK    1  A    between atoms: _1  and  _3
REMARK    2  A    between atoms: _3  and  _4
REMARK    3  A    between atoms: _3  and  _6
REMARK    4  A    between atoms: _6  and  _7
REMARK    5  A    between atoms: _7  and  _8
REMARK    6  A    between atoms: _8  and  _9
REMARK    7  A    between atoms: _18  and  _20
REMARK    8  A    between atoms: _20  and  _21
REMARK    9  A    between atoms: _20  and  _23
REMARK   10  A    between atoms: _23  and  _24
REMARK   11  A    between atoms: _27  and  _29
REMARK   12  A    between atoms: _29  and  _30
REMARK   13  A    between atoms: _29  and  _32
REMARK   14  A    between atoms: _32  and  _33
REMARK   15  A    between atoms: _36  and  _38
REMARK   16  A    between atoms: _38  and  _39
REMARK   17  A    between atoms: _38  and  _41
REMARK   18  A    between atoms: _41  and  _42
REMARK   19  A    between atoms: _45  and  _47
REMARK   20  A    between atoms: _47  and  _48
REMARK   21  A    between atoms: _47  and  _50
REMARK   22  A    between atoms: _50  and  _51
REMARK   23  A    between atoms: _54  and  _56
REMARK   24  A    between atoms: _56  and  _57
REMARK   25  A    between atoms: _59  and  _61
REMARK   26  A    between atoms: _61  and  _62
REMARK   27  A    between atoms: _65  and  _67
REMARK   28  A    between atoms: _67  and  _68
REMARK   29  A    between atoms: _67  and  _70
REMARK   30  A    between atoms: _70  and  _71
REMARK   31  A    between atoms: _74  and  _76
REMARK   32  A    between atoms: _76  and  _77
REMARK   33  A    between atoms: _76  and  _79
REMARK   34  A    between atoms: _79  and  _80
REMARK   35  A    between atoms: _83  and  _85
REMARK   36  A    between atoms: _85  and  _86
REMARK   37  A    between atoms: _85  and  _88
REMARK   38  A    between atoms: _88  and  _89
REMARK   39  A    between atoms: _92  and  _94
REMARK   40  A    between atoms: _94  and  _95
REMARK   41  A    between atoms: _94  and  _97
REMARK   42  A    between atoms: _100  and  _102
REMARK   43  A    between atoms: _102  and  _103
REMARK   44  A    between atoms: _102  and  _105
REMARK   45  A    between atoms: _105  and  _106
REMARK   46  A    between atoms: _106  and  _107
REMARK   47  A    between atoms: _109  and  _111
REMARK   48  A    between atoms: _111  and  _112
REMARK   49  A    between atoms: _111  and  _114
REMARK   50  A    between atoms: _114  and  _115
REMARK   51  A    between atoms: _118  and  _120
REMARK   52  A    between atoms: _120  and  _121
REMARK   53  A    between atoms: _123  and  _125
REMARK   54  A    between atoms: _125  and  _126
REMARK   55  A    between atoms: _128  and  _130
REMARK   56  A    between atoms: _130  and  _131
REMARK   57  A    between atoms: _130  and  _133
REMARK   58  A    between atoms: _133  and  _134
REMARK   59  A    between atoms: _137  and  _139
REMARK   60  A    between atoms: _139  and  _140
REMARK   61  A    between atoms: _142  and  _144
REMARK   62  A    between atoms: _144  and  _145
REMARK   63  A    between atoms: _147  and  _149
REMARK   64  A    between atoms: _149  and  _150
REMARK   65  A    between atoms: _149  and  _152
REMARK   66  A    between atoms: _152  and  _153
REMARK   67  A    between atoms: _159  and  _161
REMARK   68  A    between atoms: _161  and  _162
REMARK   69  A    between atoms: _161  and  _164
REMARK   70  A    between atoms: _164  and  _165
REMARK   71  A    between atoms: _168  and  _170
REMARK   72  A    between atoms: _170  and  _171
REMARK   73  A    between atoms: _170  and  _173
REMARK   74  A    between atoms: _176  and  _178
REMARK   75  A    between atoms: _178  and  _179
REMARK   76  A    between atoms: _178  and  _181
REMARK   77  A    between atoms: _181  and  _182
REMARK   78  A    between atoms: _185  and  _187
REMARK   79  A    between atoms: _187  and  _188
REMARK   80  A    between atoms: _187  and  _190
REMARK   81  A    between atoms: _190  and  _191
REMARK   82  A    between atoms: _195  and  _196
REMARK   83  A    between atoms: _201  and  _203
REMARK   84  A    between atoms: _203  and  _204
REMARK   85  A    between atoms: _203  and  _206
REMARK   86  A    between atoms: _209  and  _211
REMARK   87  A    between atoms: _211  and  _212
REMARK   88  A    between atoms: _211  and  _214
REMARK   89  A    between atoms: _214  and  _215
REMARK   90  A    between atoms: _220  and  _222
REMARK   91  A    between atoms: _222  and  _223
REMARK   92  A    between atoms: _222  and  _225
REMARK   93  A    between atoms: _225  and  _226
REMARK   94  A    between atoms: _229  and  _231
REMARK   95  A    between atoms: _231  and  _232
REMARK   96  A    between atoms: _231  and  _234
REMARK   97  A    between atoms: _234  and  _235
REMARK   98  A    between atoms: _238  and  _240
REMARK   99  A    between atoms: _240  and  _241
REMARK  100  A    between atoms: _243  and  _245
REMARK  101  A    between atoms: _245  and  _246
REMARK  102  A    between atoms: _245  and  _248
REMARK  103  A    between atoms: _248  and  _249
REMARK  104  A    between atoms: _249  and  _250
REMARK  105  A    between atoms: _250  and  _251
REMARK  106  A    between atoms: _260  and  _262
REMARK  107  A    between atoms: _262  and  _263
REMARK  108  A    between atoms: _262  and  _265
REMARK  109  A    between atoms: _265  and  _266
REMARK  110  A    between atoms: _271  and  _273
REMARK  111  A    between atoms: _273  and  _274
REMARK  112  A    between atoms: _273  and  _276
REMARK  113  A    between atoms: _276  and  _277
REMARK  114  A    between atoms: _277  and  _278
REMARK  115  A    between atoms: _278  and  _279
REMARK  116  A    between atoms: _288  and  _290
REMARK  117  A    between atoms: _290  and  _291
REMARK  118  A    between atoms: _290  and  _293
REMARK  119  A    between atoms: _293  and  _294
REMARK  120  A    between atoms: _297  and  _299
REMARK  121  A    between atoms: _299  and  _300
REMARK  122  A    between atoms: _299  and  _302
REMARK  123  A    between atoms: _302  and  _303
REMARK  124  A    between atoms: _306  and  _308
REMARK  125  A    between atoms: _308  and  _309
REMARK  126  A    between atoms: _308  and  _311
REMARK  127  A    between atoms: _311  and  _312
REMARK  128  A    between atoms: _315  and  _317
REMARK  129  A    between atoms: _317  and  _318
REMARK  130  A    between atoms: _317  and  _320
REMARK  131  A    between atoms: _320  and  _321
REMARK  132  A    between atoms: _324  and  _326
REMARK  133  A    between atoms: _326  and  _327
REMARK  134  A    between atoms: _329  and  _331
REMARK  135  A    between atoms: _331  and  _332
REMARK  136  A    between atoms: _335  and  _337
REMARK  137  A    between atoms: _337  and  _338
REMARK  138  A    between atoms: _337  and  _340
REMARK  139  A    between atoms: _340  and  _341
REMARK  140  A    between atoms: _344  and  _346
REMARK  141  A    between atoms: _346  and  _347
REMARK  142  A    between atoms: _346  and  _349
REMARK  143  A    between atoms: _349  and  _350
REMARK  144  A    between atoms: _353  and  _355
REMARK  145  A    between atoms: _355  and  _356
REMARK  146  A    between atoms: _355  and  _358
REMARK  147  A    between atoms: _358  and  _359
REMARK  148  A    between atoms: _362  and  _364
REMARK  149  A    between atoms: _364  and  _365
REMARK  150  A    between atoms: _364  and  _367
REMARK  151  A    between atoms: _370  and  _372
REMARK  152  A    between atoms: _372  and  _373
REMARK  153  A    between atoms: _372  and  _375
REMARK  154  A    between atoms: _375  and  _376
REMARK  155  A    between atoms: _376  and  _377
REMARK  156  A    between atoms: _377  and  _378
REMARK  157  A    between atoms: _378  and  _379
REMARK  158  A    between atoms: _383  and  _385
REMARK  159  A    between atoms: _385  and  _386
REMARK  160  A    between atoms: _385  and  _388
REMARK  161  A    between atoms: _388  and  _389
REMARK  162  A    between atoms: _389  and  _390
REMARK  163  A    between atoms: _392  and  _394
REMARK  164  A    between atoms: _394  and  _395
REMARK  165  A    between atoms: _394  and  _397
REMARK  166  A    between atoms: _397  and  _398
REMARK  167  A    between atoms: _401  and  _403
REMARK  168  A    between atoms: _403  and  _404
REMARK  169  A    between atoms: _406  and  _408
REMARK  170  A    between atoms: _408  and  _409
REMARK  171  A    between atoms: _411  and  _413
REMARK  172  A    between atoms: _413  and  _414
REMARK  173  A    between atoms: _413  and  _416
REMARK  174  A    between atoms: _416  and  _417
REMARK  175  A    between atoms: _420  and  _422
REMARK  176  A    between atoms: _422  and  _423
REMARK  177  A    between atoms: _425  and  _427
REMARK  178  A    between atoms: _427  and  _428
REMARK  179  A    between atoms: _430  and  _432
REMARK  180  A    between atoms: _432  and  _433
REMARK  181  A    between atoms: _432  and  _435
REMARK  182  A    between atoms: _435  and  _436
REMARK  183  A    between atoms: _442  and  _444
REMARK  184  A    between atoms: _444  and  _445
REMARK  185  A    between atoms: _444  and  _447
REMARK  186  A    between atoms: _447  and  _448
REMARK  187  A    between atoms: _451  and  _453
REMARK  188  A    between atoms: _453  and  _454
REMARK  189  A    between atoms: _453  and  _456
REMARK  190  A    between atoms: _459  and  _461
REMARK  191  A    between atoms: _461  and  _462
REMARK  192  A    between atoms: _461  and  _464
REMARK  193  A    between atoms: _464  and  _465
REMARK  194  A    between atoms: _468  and  _470
REMARK  195  A    between atoms: _470  and  _471
REMARK  196  A    between atoms: _470  and  _473
REMARK  197  A    between atoms: _473  and  _474
REMARK  198  A    between atoms: _478  and  _479
REMARK  199  A    between atoms: _484  and  _486
REMARK  200  A    between atoms: _486  and  _487
REMARK  201  A    between atoms: _486  and  _489
REMARK  202  A    between atoms: _492  and  _494
REMARK  203  A    between atoms: _494  and  _495
REMARK  204  A    between atoms: _494  and  _497
REMARK  205  A    between atoms: _497  and  _498
REMARK  206  A    between atoms: _503  and  _505
REMARK  207  A    between atoms: _505  and  _506
REMARK  208  A    between atoms: _505  and  _508
REMARK  209  A    between atoms: _508  and  _509
REMARK  210  A    between atoms: _512  and  _514
REMARK  211  A    between atoms: _514  and  _515
REMARK  212  A    between atoms: _514  and  _517
REMARK  213  A    between atoms: _517  and  _518
REMARK  214  A    between atoms: _521  and  _523
REMARK  215  A    between atoms: _523  and  _524
REMARK  216  A    between atoms: _526  and  _528
REMARK  217  A    between atoms: _528  and  _529
REMARK  218  A    between atoms: _528  and  _531
REMARK  219  A    between atoms: _531  and  _532
REMARK  220  A    between atoms: _532  and  _533
REMARK  221  A    between atoms: _533  and  _534
REMARK                            x       y       z     vdW  Elec       q    Type
REMARK                         _______ _______ _______ _____ _____    ______ ____
ROOT
ATOM      1  O   HOH     1       0.368   4.219   8.245  0.00  0.00    +0.000 OA
ENDROOT
TORSDOF 0
REMARK  Name = ../refined-set-2016/1mtr/1mtr_pocket.pdb
REMARK  221 active torsions:
REMARK  status: ('A' for Active; 'I' for Inactive)
REMARK    1  A    between atoms: _1  and  _3
REMARK    2  A    between atoms: _3  and  _4
REMARK    3  A    between atoms: _3  and  _6
REMARK    4  A    between atoms: _6  and  _7
REMARK    5  A    between atoms: _7  and  _8
REMARK    6  A    between atoms: _8  and  _9
REMARK    7  A    between atoms: _18  and  _20
REMARK    8  A    between atoms: _20  and  _21
REMARK    9  A    between atoms: _20  and  _23
REMARK   10  A    between atoms: _23  and  _24
REMARK   11  A    between atoms: _27  and  _29
REMARK   12  A    between atoms: _29  and  _30
REMARK   13  A    between atoms: _29  and  _32
REMARK   14  A    between atoms: _32  and  _33
REMARK   15  A    between atoms: _36  and  _38
REMARK   16  A    between atoms: _38  and  _39
REMARK   17  A    between atoms: _38  and  _41
REMARK   18  A    between atoms: _41  and  _42
REMARK   19  A    between atoms: _45  and  _47
REMARK   20  A    between atoms: _47  and  _48
REMARK   21  A    between atoms: _47  and  _50
REMARK   22  A    between atoms: _50  and  _51
REMARK   23  A    between atoms: _54  and  _56
REMARK   24  A    between atoms: _56  and  _57
REMARK   25  A    between atoms: _59  and  _61
REMARK   26  A    between atoms: _61  and  _62
REMARK   27  A    between atoms: _65  and  _67
REMARK   28  A    between atoms: _67  and  _68
REMARK   29  A    between atoms: _67  and  _70
REMARK   30  A    between atoms: _70  and  _71
REMARK   31  A    between atoms: _74  and  _76
REMARK   32  A    between atoms: _76  and  _77
REMARK   33  A    between atoms: _76  and  _79
REMARK   34  A    between atoms: _79  and  _80
REMARK   35  A    between atoms: _83  and  _85
REMARK   36  A    between atoms: _85  and  _86
REMARK   37  A    between atoms: _85  and  _88
REMARK   38  A    between atoms: _88  and  _89
REMARK   39  A    between atoms: _92  and  _94
REMARK   40  A    between atoms: _94  and  _95
REMARK   41  A    between atoms: _94  and  _97
REMARK   42  A    between atoms: _100  and  _102
REMARK   43  A    between atoms: _102  and  _103
REMARK   44  A    between atoms: _102  and  _105
REMARK   45  A    between atoms: _105  and  _106
REMARK   46  A    between atoms: _106  and  _107
REMARK   47  A    between atoms: _109  and  _111
REMARK   48  A    between atoms: _111  and  _112
REMARK   49  A    between atoms: _111  and  _114
REMARK   50  A    between atoms: _114  and  _115
REMARK   51  A    between atoms: _118  and  _120
REMARK   52  A    between atoms: _120  and  _121
REMARK   53  A    between atoms: _123  and  _125
REMARK   54  A    between atoms: _125  and  _126
REMARK   55  A    between atoms: _128  and  _130
REMARK   56  A    between atoms: _130  and  _131
REMARK   57  A    between atoms: _130  and  _133
REMARK   58  A    between atoms: _133  and  _134
REMARK   59  A    between atoms: _137  and  _139
REMARK   60  A    between atoms: _139  and  _140
REMARK   61  A    between atoms: _142  and  _144
REMARK   62  A    between atoms: _144  and  _145
REMARK   63  A    between atoms: _147  and  _149
REMARK   64  A    between atoms: _149  and  _150
REMARK   65  A    between atoms: _149  and  _152
REMARK   66  A    between atoms: _152  and  _153
REMARK   67  A    between atoms: _159  and  _161
REMARK   68  A    between atoms: _161  and  _162
REMARK   69  A    between atoms: _161  and  _164
REMARK   70  A    between atoms: _164  and  _165
REMARK   71  A    between atoms: _168  and  _170
REMARK   72  A    between atoms: _170  and  _171
REMARK   73  A    between atoms: _170  and  _173
REMARK   74  A    between atoms: _176  and  _178
REMARK   75  A    between atoms: _178  and  _179
REMARK   76  A    between atoms: _178  and  _181
REMARK   77  A    between atoms: _181  and  _182
REMARK   78  A    between atoms: _185  and  _187
REMARK   79  A    between atoms: _187  and  _188
REMARK   80  A    between atoms: _187  and  _190
REMARK   81  A    between atoms: _190  and  _191
REMARK   82  A    between atoms: _195  and  _196
REMARK   83  A    between atoms: _201  and  _203
REMARK   84  A    between atoms: _203  and  _204
REMARK   85  A    between atoms: _203  and  _206
REMARK   86  A    between atoms: _209  and  _211
REMARK   87  A    between atoms: _211  and  _212
REMARK   88  A    between atoms: _211  and  _214
REMARK   89  A    between atoms: _214  and  _215
REMARK   90  A    between atoms: _220  and  _222
REMARK   91  A    between atoms: _222  and  _223
REMARK   92  A    between atoms: _222  and  _225
REMARK   93  A    between atoms: _225  and  _226
REMARK   94  A    between atoms: _229  and  _231
REMARK   95  A    between atoms: _231  and  _232
REMARK   96  A    between atoms: _231  and  _234
REMARK   97  A    between atoms: _234  and  _235
REMARK   98  A    between atoms: _238  and  _240
REMARK   99  A    between atoms: _240  and  _241
REMARK  100  A    between atoms: _243  and  _245
REMARK  101  A    between atoms: _245  and  _246
REMARK  102  A    between atoms: _245  and  _248
REMARK  103  A    between atoms: _248  and  _249
REMARK  104  A    between atoms: _249  and  _250
REMARK  105  A    between atoms: _250  and  _251
REMARK  106  A    between atoms: _260  and  _262
REMARK  107  A    between atoms: _262  and  _263
REMARK  108  A    between atoms: _262  and  _265
REMARK  109  A    between atoms: _265  and  _266
REMARK  110  A    between atoms: _271  and  _273
REMARK  111  A    between atoms: _273  and  _274
REMARK  112  A    between atoms: _273  and  _276
REMARK  113  A    between atoms: _276  and  _277
REMARK  114  A    between atoms: _277  and  _278
REMARK  115  A    between atoms: _278  and  _279
REMARK  116  A    between atoms: _288  and  _290
REMARK  117  A    between atoms: _290  and  _291
REMARK  118  A    between atoms: _290  and  _293
REMARK  119  A    between atoms: _293  and  _294
REMARK  120  A    between atoms: _297  and  _299
REMARK  121  A    between atoms: _299  and  _300
REMARK  122  A    between atoms: _299  and  _302
REMARK  123  A    between atoms: _302  and  _303
REMARK  124  A    between atoms: _306  and  _308
REMARK  125  A    between atoms: _308  and  _309
REMARK  126  A    between atoms: _308  and  _311
REMARK  127  A    between atoms: _311  and  _312
REMARK  128  A    between atoms: _315  and  _317
REMARK  129  A    between atoms: _317  and  _318
REMARK  130  A    between atoms: _317  and  _320
REMARK  131  A    between atoms: _320  and  _321
REMARK  132  A    between atoms: _324  and  _326
REMARK  133  A    between atoms: _326  and  _327
REMARK  134  A    between atoms: _329  and  _331
REMARK  135  A    between atoms: _331  and  _332
REMARK  136  A    between atoms: _335  and  _337
REMARK  137  A    between atoms: _337  and  _338
REMARK  138  A    between atoms: _337  and  _340
REMARK  139  A    between atoms: _340  and  _341
REMARK  140  A    between atoms: _344  and  _346
REMARK  141  A    between atoms: _346  and  _347
REMARK  142  A    between atoms: _346  and  _349
REMARK  143  A    between atoms: _349  and  _350
REMARK  144  A    between atoms: _353  and  _355
REMARK  145  A    between atoms: _355  and  _356
REMARK  146  A    between atoms: _355  and  _358
REMARK  147  A    between atoms: _358  and  _359
REMARK  148  A    between atoms: _362  and  _364
REMARK  149  A    between atoms: _364  and  _365
REMARK  150  A    between atoms: _364  and  _367
REMARK  151  A    between atoms: _370  and  _372
REMARK  152  A    between atoms: _372  and  _373
REMARK  153  A    between atoms: _372  and  _375
REMARK  154  A    between atoms: _375  and  _376
REMARK  155  A    between atoms: _376  and  _377
REMARK  156  A    between atoms: _377  and  _378
REMARK  157  A    between atoms: _378  and  _379
REMARK  158  A    between atoms: _383  and  _385
REMARK  159  A    between atoms: _385  and  _386
REMARK  160  A    between atoms: _385  and  _388
REMARK  161  A    between atoms: _388  and  _389
REMARK  162  A    between atoms: _389  and  _390
REMARK  163  A    between atoms: _392  and  _394
REMARK  164  A    between atoms: _394  and  _395
REMARK  165  A    between atoms: _394  and  _397
REMARK  166  A    between atoms: _397  and  _398
REMARK  167  A    between atoms: _401  and  _403
REMARK  168  A    between atoms: _403  and  _404
REMARK  169  A    between atoms: _406  and  _408
REMARK  170  A    between atoms: _408  and  _409
REMARK  171  A    between atoms: _411  and  _413
REMARK  172  A    between atoms: _413  and  _414
REMARK  173  A    between atoms: _413  and  _416
REMARK  174  A    between atoms: _416  and  _417
REMARK  175  A    between atoms: _420  and  _422
REMARK  176  A    between atoms: _422  and  _423
REMARK  177  A    between atoms: _425  and  _427
REMARK  178  A    between atoms: _427  and  _428
REMARK  179  A    between atoms: _430  and  _432
REMARK  180  A    between atoms: _432  and  _433
REMARK  181  A    between atoms: _432  and  _435
REMARK  182  A    between atoms: _435  and  _436
REMARK  183  A    between atoms: _442  and  _444
REMARK  184  A    between atoms: _444  and  _445
REMARK  185  A    between atoms: _444  and  _447
REMARK  186  A    between atoms: _447  and  _448
REMARK  187  A    between atoms: _451  and  _453
REMARK  188  A    between atoms: _453  and  _454
REMARK  189  A    between atoms: _453  and  _456
REMARK  190  A    between atoms: _459  and  _461
REMARK  191  A    between atoms: _461  and  _462
REMARK  192  A    between atoms: _461  and  _464
REMARK  193  A    between atoms: _464  and  _465
REMARK  194  A    between atoms: _468  and  _470
REMARK  195  A    between atoms: _470  and  _471
REMARK  196  A    between atoms: _470  and  _473
REMARK  197  A    between atoms: _473  and  _474
REMARK  198  A    between atoms: _478  and  _479
REMARK  199  A    between atoms: _484  and  _486
REMARK  200  A    between atoms: _486  and  _487
REMARK  201  A    between atoms: _486  and  _489
REMARK  202  A    between atoms: _492  and  _494
REMARK  203  A    between atoms: _494  and  _495
REMARK  204  A    between atoms: _494  and  _497
REMARK  205  A    between atoms: _497  and  _498
REMARK  206  A    between atoms: _503  and  _505
REMARK  207  A    between atoms: _505  and  _506
REMARK  208  A    between atoms: _505  and  _508
REMARK  209  A    between atoms: _508  and  _509
REMARK  210  A    between atoms: _512  and  _514
REMARK  211  A    between atoms: _514  and  _515
REMARK  212  A    between atoms: _514  and  _517
REMARK  213  A    between atoms: _517  and  _518
REMARK  214  A    between atoms: _521  and  _523
REMARK  215  A    between atoms: _523  and  _524
REMARK  216  A    between atoms: _526  and  _528
REMARK  217  A    between atoms: _528  and  _529
REMARK  218  A    between atoms: _528  and  _531
REMARK  219  A    between atoms: _531  and  _532
REMARK  220  A    between atoms: _532  and  _533
REMARK  221  A    between atoms: _533  and  _534
REMARK                            x       y       z     vdW  Elec       q    Type
REMARK                         _______ _______ _______ _____ _____    ______ ____
ROOT
ATOM      1  O   HOH     1      -2.783   8.418   7.870  0.00  0.00    +0.000 OA
ENDROOT
TORSDOF 0
REMARK  Name = ../refined-set-2016/1mtr/1mtr_pocket.pdb
REMARK  221 active torsions:
REMARK  status: ('A' for Active; 'I' for Inactive)
REMARK    1  A    between atoms: _1  and  _3
REMARK    2  A    between atoms: _3  and  _4
REMARK    3  A    between atoms: _3  and  _6
REMARK    4  A    between atoms: _6  and  _7
REMARK    5  A    between atoms: _7  and  _8
REMARK    6  A    between atoms: _8  and  _9
REMARK    7  A    between atoms: _18  and  _20
REMARK    8  A    between atoms: _20  and  _21
REMARK    9  A    between atoms: _20  and  _23
REMARK   10  A    between atoms: _23  and  _24
REMARK   11  A    between atoms: _27  and  _29
REMARK   12  A    between atoms: _29  and  _30
REMARK   13  A    between atoms: _29  and  _32
REMARK   14  A    between atoms: _32  and  _33
REMARK   15  A    between atoms: _36  and  _38
REMARK   16  A    between atoms: _38  and  _39
REMARK   17  A    between atoms: _38  and  _41
REMARK   18  A    between atoms: _41  and  _42
REMARK   19  A    between atoms: _45  and  _47
REMARK   20  A    between atoms: _47  and  _48
REMARK   21  A    between atoms: _47  and  _50
REMARK   22  A    between atoms: _50  and  _51
REMARK   23  A    between atoms: _54  and  _56
REMARK   24  A    between atoms: _56  and  _57
REMARK   25  A    between atoms: _59  and  _61
REMARK   26  A    between atoms: _61  and  _62
REMARK   27  A    between atoms: _65  and  _67
REMARK   28  A    between atoms: _67  and  _68
REMARK   29  A    between atoms: _67  and  _70
REMARK   30  A    between atoms: _70  and  _71
REMARK   31  A    between atoms: _74  and  _76
REMARK   32  A    between atoms: _76  and  _77
REMARK   33  A    between atoms: _76  and  _79
REMARK   34  A    between atoms: _79  and  _80
REMARK   35  A    between atoms: _83  and  _85
REMARK   36  A    between atoms: _85  and  _86
REMARK   37  A    between atoms: _85  and  _88
REMARK   38  A    between atoms: _88  and  _89
REMARK   39  A    between atoms: _92  and  _94
REMARK   40  A    between atoms: _94  and  _95
REMARK   41  A    between atoms: _94  and  _97
REMARK   42  A    between atoms: _100  and  _102
REMARK   43  A    between atoms: _102  and  _103
REMARK   44  A    between atoms: _102  and  _105
REMARK   45  A    between atoms: _105  and  _106
REMARK   46  A    between atoms: _106  and  _107
REMARK   47  A    between atoms: _109  and  _111
REMARK   48  A    between atoms: _111  and  _112
REMARK   49  A    between atoms: _111  and  _114
REMARK   50  A    between atoms: _114  and  _115
REMARK   51  A    between atoms: _118  and  _120
REMARK   52  A    between atoms: _120  and  _121
REMARK   53  A    between atoms: _123  and  _125
REMARK   54  A    between atoms: _125  and  _126
REMARK   55  A    between atoms: _128  and  _130
REMARK   56  A    between atoms: _130  and  _131
REMARK   57  A    between atoms: _130  and  _133
REMARK   58  A    between atoms: _133  and  _134
REMARK   59  A    between atoms: _137  and  _139
REMARK   60  A    between atoms: _139  and  _140
REMARK   61  A    between atoms: _142  and  _144
REMARK   62  A    between atoms: _144  and  _145
REMARK   63  A    between atoms: _147  and  _149
REMARK   64  A    between atoms: _149  and  _150
REMARK   65  A    between atoms: _149  and  _152
REMARK   66  A    between atoms: _152  and  _153
REMARK   67  A    between atoms: _159  and  _161
REMARK   68  A    between atoms: _161  and  _162
REMARK   69  A    between atoms: _161  and  _164
REMARK   70  A    between atoms: _164  and  _165
REMARK   71  A    between atoms: _168  and  _170
REMARK   72  A    between atoms: _170  and  _171
REMARK   73  A    between atoms: _170  and  _173
REMARK   74  A    between atoms: _176  and  _178
REMARK   75  A    between atoms: _178  and  _179
REMARK   76  A    between atoms: _178  and  _181
REMARK   77  A    between atoms: _181  and  _182
REMARK   78  A    between atoms: _185  and  _187
REMARK   79  A    between atoms: _187  and  _188
REMARK   80  A    between atoms: _187  and  _190
REMARK   81  A    between atoms: _190  and  _191
REMARK   82  A    between atoms: _195  and  _196
REMARK   83  A    between atoms: _201  and  _203
REMARK   84  A    between atoms: _203  and  _204
REMARK   85  A    between atoms: _203  and  _206
REMARK   86  A    between atoms: _209  and  _211
REMARK   87  A    between atoms: _211  and  _212
REMARK   88  A    between atoms: _211  and  _214
REMARK   89  A    between atoms: _214  and  _215
REMARK   90  A    between atoms: _220  and  _222
REMARK   91  A    between atoms: _222  and  _223
REMARK   92  A    between atoms: _222  and  _225
REMARK   93  A    between atoms: _225  and  _226
REMARK   94  A    between atoms: _229  and  _231
REMARK   95  A    between atoms: _231  and  _232
REMARK   96  A    between atoms: _231  and  _234
REMARK   97  A    between atoms: _234  and  _235
REMARK   98  A    between atoms: _238  and  _240
REMARK   99  A    between atoms: _240  and  _241
REMARK  100  A    between atoms: _243  and  _245
REMARK  101  A    between atoms: _245  and  _246
REMARK  102  A    between atoms: _245  and  _248
REMARK  103  A    between atoms: _248  and  _249
REMARK  104  A    between atoms: _249  and  _250
REMARK  105  A    between atoms: _250  and  _251
REMARK  106  A    between atoms: _260  and  _262
REMARK  107  A    between atoms: _262  and  _263
REMARK  108  A    between atoms: _262  and  _265
REMARK  109  A    between atoms: _265  and  _266
REMARK  110  A    between atoms: _271  and  _273
REMARK  111  A    between atoms: _273  and  _274
REMARK  112  A    between atoms: _273  and  _276
REMARK  113  A    between atoms: _276  and  _277
REMARK  114  A    between atoms: _277  and  _278
REMARK  115  A    between atoms: _278  and  _279
REMARK  116  A    between atoms: _288  and  _290
REMARK  117  A    between atoms: _290  and  _291
REMARK  118  A    between atoms: _290  and  _293
REMARK  119  A    between atoms: _293  and  _294
REMARK  120  A    between atoms: _297  and  _299
REMARK  121  A    between atoms: _299  and  _300
REMARK  122  A    between atoms: _299  and  _302
REMARK  123  A    between atoms: _302  and  _303
REMARK  124  A    between atoms: _306  and  _308
REMARK  125  A    between atoms: _308  and  _309
REMARK  126  A    between atoms: _308  and  _311
REMARK  127  A    between atoms: _311  and  _312
REMARK  128  A    between atoms: _315  and  _317
REMARK  129  A    between atoms: _317  and  _318
REMARK  130  A    between atoms: _317  and  _320
REMARK  131  A    between atoms: _320  and  _321
REMARK  132  A    between atoms: _324  and  _326
REMARK  133  A    between atoms: _326  and  _327
REMARK  134  A    between atoms: _329  and  _331
REMARK  135  A    between atoms: _331  and  _332
REMARK  136  A    between atoms: _335  and  _337
REMARK  137  A    between atoms: _337  and  _338
REMARK  138  A    between atoms: _337  and  _340
REMARK  139  A    between atoms: _340  and  _341
REMARK  140  A    between atoms: _344  and  _346
REMARK  141  A    between atoms: _346  and  _347
REMARK  142  A    between atoms: _346  and  _349
REMARK  143  A    between atoms: _349  and  _350
REMARK  144  A    between atoms: _353  and  _355
REMARK  145  A    between atoms: _355  and  _356
REMARK  146  A    between atoms: _355  and  _358
REMARK  147  A    between atoms: _358  and  _359
REMARK  148  A    between atoms: _362  and  _364
REMARK  149  A    between atoms: _364  and  _365
REMARK  150  A    between atoms: _364  and  _367
REMARK  151  A    between atoms: _370  and  _372
REMARK  152  A    between atoms: _372  and  _373
REMARK  153  A    between atoms: _372  and  _375
REMARK  154  A    between atoms: _375  and  _376
REMARK  155  A    between atoms: _376  and  _377
REMARK  156  A    between atoms: _377  and  _378
REMARK  157  A    between atoms: _378  and  _379
REMARK  158  A    between atoms: _383  and  _385
REMARK  159  A    between atoms: _385  and  _386
REMARK  160  A    between atoms: _385  and  _388
REMARK  161  A    between atoms: _388  and  _389
REMARK  162  A    between atoms: _389  and  _390
REMARK  163  A    between atoms: _392  and  _394
REMARK  164  A    between atoms: _394  and  _395
REMARK  165  A    between atoms: _394  and  _397
REMARK  166  A    between atoms: _397  and  _398
REMARK  167  A    between atoms: _401  and  _403
REMARK  168  A    between atoms: _403  and  _404
REMARK  169  A    between atoms: _406  and  _408
REMARK  170  A    between atoms: _408  and  _409
REMARK  171  A    between atoms: _411  and  _413
REMARK  172  A    between atoms: _413  and  _414
REMARK  173  A    between atoms: _413  and  _416
REMARK  174  A    between atoms: _416  and  _417
REMARK  175  A    between atoms: _420  and  _422
REMARK  176  A    between atoms: _422  and  _423
REMARK  177  A    between atoms: _425  and  _427
REMARK  178  A    between atoms: _427  and  _428
REMARK  179  A    between atoms: _430  and  _432
REMARK  180  A    between atoms: _432  and  _433
REMARK  181  A    between atoms: _432  and  _435
REMARK  182  A    between atoms: _435  and  _436
REMARK  183  A    between atoms: _442  and  _444
REMARK  184  A    between atoms: _444  and  _445
REMARK  185  A    between atoms: _444  and  _447
REMARK  186  A    between atoms: _447  and  _448
REMARK  187  A    between atoms: _451  and  _453
REMARK  188  A    between atoms: _453  and  _454
REMARK  189  A    between atoms: _453  and  _456
REMARK  190  A    between atoms: _459  and  _461
REMARK  191  A    between atoms: _461  and  _462
REMARK  192  A    between atoms: _461  and  _464
REMARK  193  A    between atoms: _464  and  _465
REMARK  194  A    between atoms: _468  and  _470
REMARK  195  A    between atoms: _470  and  _471
REMARK  196  A    between atoms: _470  and  _473
REMARK  197  A    between atoms: _473  and  _474
REMARK  198  A    between atoms: _478  and  _479
REMARK  199  A    between atoms: _484  and  _486
REMARK  200  A    between atoms: _486  and  _487
REMARK  201  A    between atoms: _486  and  _489
REMARK  202  A    between atoms: _492  and  _494
REMARK  203  A    between atoms: _494  and  _495
REMARK  204  A    between atoms: _494  and  _497
REMARK  205  A    between atoms: _497  and  _498
REMARK  206  A    between atoms: _503  and  _505
REMARK  207  A    between atoms: _505  and  _506
REMARK  208  A    between atoms: _505  and  _508
REMARK  209  A    between atoms: _508  and  _509
REMARK  210  A    between atoms: _512  and  _514
REMARK  211  A    between atoms: _514  and  _515
REMARK  212  A    between atoms: _514  and  _517
REMARK  213  A    between atoms: _517  and  _518
REMARK  214  A    between atoms: _521  and  _523
REMARK  215  A    between atoms: _523  and  _524
REMARK  216  A    between atoms: _526  and  _528
REMARK  217  A    between atoms: _528  and  _529
REMARK  218  A    between atoms: _528  and  _531
REMARK  219  A    between atoms: _531  and  _532
REMARK  220  A    between atoms: _532  and  _533
REMARK  221  A    between atoms: _533  and  _534
REMARK                            x       y       z     vdW  Elec       q    Type
REMARK                         _______ _______ _______ _____ _____    ______ ____
ROOT
ATOM      1  O   HOH     1       3.867  10.577   9.900  0.00  0.00    +0.000 OA
ENDROOT
TORSDOF 0
REMARK  Name = ../refined-set-2016/1mtr/1mtr_pocket.pdb
REMARK  221 active torsions:
REMARK  status: ('A' for Active; 'I' for Inactive)
REMARK    1  A    between atoms: _1  and  _3
REMARK    2  A    between atoms: _3  and  _4
REMARK    3  A    between atoms: _3  and  _6
REMARK    4  A    between atoms: _6  and  _7
REMARK    5  A    between atoms: _7  and  _8
REMARK    6  A    between atoms: _8  and  _9
REMARK    7  A    between atoms: _18  and  _20
REMARK    8  A    between atoms: _20  and  _21
REMARK    9  A    between atoms: _20  and  _23
REMARK   10  A    between atoms: _23  and  _24
REMARK   11  A    between atoms: _27  and  _29
REMARK   12  A    between atoms: _29  and  _30
REMARK   13  A    between atoms: _29  and  _32
REMARK   14  A    between atoms: _32  and  _33
REMARK   15  A    between atoms: _36  and  _38
REMARK   16  A    between atoms: _38  and  _39
REMARK   17  A    between atoms: _38  and  _41
REMARK   18  A    between atoms: _41  and  _42
REMARK   19  A    between atoms: _45  and  _47
REMARK   20  A    between atoms: _47  and  _48
REMARK   21  A    between atoms: _47  and  _50
REMARK   22  A    between atoms: _50  and  _51
REMARK   23  A    between atoms: _54  and  _56
REMARK   24  A    between atoms: _56  and  _57
REMARK   25  A    between atoms: _59  and  _61
REMARK   26  A    between atoms: _61  and  _62
REMARK   27  A    between atoms: _65  and  _67
REMARK   28  A    between atoms: _67  and  _68
REMARK   29  A    between atoms: _67  and  _70
REMARK   30  A    between atoms: _70  and  _71
REMARK   31  A    between atoms: _74  and  _76
REMARK   32  A    between atoms: _76  and  _77
REMARK   33  A    between atoms: _76  and  _79
REMARK   34  A    between atoms: _79  and  _80
REMARK   35  A    between atoms: _83  and  _85
REMARK   36  A    between atoms: _85  and  _86
REMARK   37  A    between atoms: _85  and  _88
REMARK   38  A    between atoms: _88  and  _89
REMARK   39  A    between atoms: _92  and  _94
REMARK   40  A    between atoms: _94  and  _95
REMARK   41  A    between atoms: _94  and  _97
REMARK   42  A    between atoms: _100  and  _102
REMARK   43  A    between atoms: _102  and  _103
REMARK   44  A    between atoms: _102  and  _105
REMARK   45  A    between atoms: _105  and  _106
REMARK   46  A    between atoms: _106  and  _107
REMARK   47  A    between atoms: _109  and  _111
REMARK   48  A    between atoms: _111  and  _112
REMARK   49  A    between atoms: _111  and  _114
REMARK   50  A    between atoms: _114  and  _115
REMARK   51  A    between atoms: _118  and  _120
REMARK   52  A    between atoms: _120  and  _121
REMARK   53  A    between atoms: _123  and  _125
REMARK   54  A    between atoms: _125  and  _126
REMARK   55  A    between atoms: _128  and  _130
REMARK   56  A    between atoms: _130  and  _131
REMARK   57  A    between atoms: _130  and  _133
REMARK   58  A    between atoms: _133  and  _134
REMARK   59  A    between atoms: _137  and  _139
REMARK   60  A    between atoms: _139  and  _140
REMARK   61  A    between atoms: _142  and  _144
REMARK   62  A    between atoms: _144  and  _145
REMARK   63  A    between atoms: _147  and  _149
REMARK   64  A    between atoms: _149  and  _150
REMARK   65  A    between atoms: _149  and  _152
REMARK   66  A    between atoms: _152  and  _153
REMARK   67  A    between atoms: _159  and  _161
REMARK   68  A    between atoms: _161  and  _162
REMARK   69  A    between atoms: _161  and  _164
REMARK   70  A    between atoms: _164  and  _165
REMARK   71  A    between atoms: _168  and  _170
REMARK   72  A    between atoms: _170  and  _171
REMARK   73  A    between atoms: _170  and  _173
REMARK   74  A    between atoms: _176  and  _178
REMARK   75  A    between atoms: _178  and  _179
REMARK   76  A    between atoms: _178  and  _181
REMARK   77  A    between atoms: _181  and  _182
REMARK   78  A    between atoms: _185  and  _187
REMARK   79  A    between atoms: _187  and  _188
REMARK   80  A    between atoms: _187  and  _190
REMARK   81  A    between atoms: _190  and  _191
REMARK   82  A    between atoms: _195  and  _196
REMARK   83  A    between atoms: _201  and  _203
REMARK   84  A    between atoms: _203  and  _204
REMARK   85  A    between atoms: _203  and  _206
REMARK   86  A    between atoms: _209  and  _211
REMARK   87  A    between atoms: _211  and  _212
REMARK   88  A    between atoms: _211  and  _214
REMARK   89  A    between atoms: _214  and  _215
REMARK   90  A    between atoms: _220  and  _222
REMARK   91  A    between atoms: _222  and  _223
REMARK   92  A    between atoms: _222  and  _225
REMARK   93  A    between atoms: _225  and  _226
REMARK   94  A    between atoms: _229  and  _231
REMARK   95  A    between atoms: _231  and  _232
REMARK   96  A    between atoms: _231  and  _234
REMARK   97  A    between atoms: _234  and  _235
REMARK   98  A    between atoms: _238  and  _240
REMARK   99  A    between atoms: _240  and  _241
REMARK  100  A    between atoms: _243  and  _245
REMARK  101  A    between atoms: _245  and  _246
REMARK  102  A    between atoms: _245  and  _248
REMARK  103  A    between atoms: _248  and  _249
REMARK  104  A    between atoms: _249  and  _250
REMARK  105  A    between atoms: _250  and  _251
REMARK  106  A    between atoms: _260  and  _262
REMARK  107  A    between atoms: _262  and  _263
REMARK  108  A    between atoms: _262  and  _265
REMARK  109  A    between atoms: _265  and  _266
REMARK  110  A    between atoms: _271  and  _273
REMARK  111  A    between atoms: _273  and  _274
REMARK  112  A    between atoms: _273  and  _276
REMARK  113  A    between atoms: _276  and  _277
REMARK  114  A    between atoms: _277  and  _278
REMARK  115  A    between atoms: _278  and  _279
REMARK  116  A    between atoms: _288  and  _290
REMARK  117  A    between atoms: _290  and  _291
REMARK  118  A    between atoms: _290  and  _293
REMARK  119  A    between atoms: _293  and  _294
REMARK  120  A    between atoms: _297  and  _299
REMARK  121  A    between atoms: _299  and  _300
REMARK  122  A    between atoms: _299  and  _302
REMARK  123  A    between atoms: _302  and  _303
REMARK  124  A    between atoms: _306  and  _308
REMARK  125  A    between atoms: _308  and  _309
REMARK  126  A    between atoms: _308  and  _311
REMARK  127  A    between atoms: _311  and  _312
REMARK  128  A    between atoms: _315  and  _317
REMARK  129  A    between atoms: _317  and  _318
REMARK  130  A    between atoms: _317  and  _320
REMARK  131  A    between atoms: _320  and  _321
REMARK  132  A    between atoms: _324  and  _326
REMARK  133  A    between atoms: _326  and  _327
REMARK  134  A    between atoms: _329  and  _331
REMARK  135  A    between atoms: _331  and  _332
REMARK  136  A    between atoms: _335  and  _337
REMARK  137  A    between atoms: _337  and  _338
REMARK  138  A    between atoms: _337  and  _340
REMARK  139  A    between atoms: _340  and  _341
REMARK  140  A    between atoms: _344  and  _346
REMARK  141  A    between atoms: _346  and  _347
REMARK  142  A    between atoms: _346  and  _349
REMARK  143  A    between atoms: _349  and  _350
REMARK  144  A    between atoms: _353  and  _355
REMARK  145  A    between atoms: _355  and  _356
REMARK  146  A    between atoms: _355  and  _358
REMARK  147  A    between atoms: _358  and  _359
REMARK  148  A    between atoms: _362  and  _364
REMARK  149  A    between atoms: _364  and  _365
REMARK  150  A    between atoms: _364  and  _367
REMARK  151  A    between atoms: _370  and  _372
REMARK  152  A    between atoms: _372  and  _373
REMARK  153  A    between atoms: _372  and  _375
REMARK  154  A    between atoms: _375  and  _376
REMARK  155  A    between atoms: _376  and  _377
REMARK  156  A    between atoms: _377  and  _378
REMARK  157  A    between atoms: _378  and  _379
REMARK  158  A    between atoms: _383  and  _385
REMARK  159  A    between atoms: _385  and  _386
REMARK  160  A    between atoms: _385  and  _388
REMARK  161  A    between atoms: _388  and  _389
REMARK  162  A    between atoms: _389  and  _390
REMARK  163  A    between atoms: _392  and  _394
REMARK  164  A    between atoms: _394  and  _395
REMARK  165  A    between atoms: _394  and  _397
REMARK  166  A    between atoms: _397  and  _398
REMARK  167  A    between atoms: _401  and  _403
REMARK  168  A    between atoms: _403  and  _404
REMARK  169  A    between atoms: _406  and  _408
REMARK  170  A    between atoms: _408  and  _409
REMARK  171  A    between atoms: _411  and  _413
REMARK  172  A    between atoms: _413  and  _414
REMARK  173  A    between atoms: _413  and  _416
REMARK  174  A    between atoms: _416  and  _417
REMARK  175  A    between atoms: _420  and  _422
REMARK  176  A    between atoms: _422  and  _423
REMARK  177  A    between atoms: _425  and  _427
REMARK  178  A    between atoms: _427  and  _428
REMARK  179  A    between atoms: _430  and  _432
REMARK  180  A    between atoms: _432  and  _433
REMARK  181  A    between atoms: _432  and  _435
REMARK  182  A    between atoms: _435  and  _436
REMARK  183  A    between atoms: _442  and  _444
REMARK  184  A    between atoms: _444  and  _445
REMARK  185  A    between atoms: _444  and  _447
REMARK  186  A    between atoms: _447  and  _448
REMARK  187  A    between atoms: _451  and  _453
REMARK  188  A    between atoms: _453  and  _454
REMARK  189  A    between atoms: _453  and  _456
REMARK  190  A    between atoms: _459  and  _461
REMARK  191  A    between atoms: _461  and  _462
REMARK  192  A    between atoms: _461  and  _464
REMARK  193  A    between atoms: _464  and  _465
REMARK  194  A    between atoms: _468  and  _470
REMARK  195  A    between atoms: _470  and  _471
REMARK  196  A    between atoms: _470  and  _473
REMARK  197  A    between atoms: _473  and  _474
REMARK  198  A    between atoms: _478  and  _479
REMARK  199  A    between atoms: _484  and  _486
REMARK  200  A    between atoms: _486  and  _487
REMARK  201  A    between atoms: _486  and  _489
REMARK  202  A    between atoms: _492  and  _494
REMARK  203  A    between atoms: _494  and  _495
REMARK  204  A    between atoms: _494  and  _497
REMARK  205  A    between atoms: _497  and  _498
REMARK  206  A    between atoms: _503  and  _505
REMARK  207  A    between atoms: _505  and  _506
REMARK  208  A    between atoms: _505  and  _508
REMARK  209  A    between atoms: _508  and  _509
REMARK  210  A    between atoms: _512  and  _514
REMARK  211  A    between atoms: _514  and  _515
REMARK  212  A    between atoms: _514  and  _517
REMARK  213  A    between atoms: _517  and  _518
REMARK  214  A    between atoms: _521  and  _523
REMARK  215  A    between atoms: _523  and  _524
REMARK  216  A    between atoms: _526  and  _528
REMARK  217  A    between atoms: _528  and  _529
REMARK  218  A    between atoms: _528  and  _531
REMARK  219  A    between atoms: _531  and  _532
REMARK  220  A    between atoms: _532  and  _533
REMARK  221  A    between atoms: _533  and  _534
REMARK                            x       y       z     vdW  Elec       q    Type
REMARK                         _______ _______ _______ _____ _____    ______ ____
ROOT
ATOM      1  O   HOH     1      10.219  -4.055   5.231  0.00  0.00    +0.000 OA
ENDROOT
TORSDOF 0
REMARK  Name = ../refined-set-2016/1mtr/1mtr_pocket.pdb
REMARK  221 active torsions:
REMARK  status: ('A' for Active; 'I' for Inactive)
REMARK    1  A    between atoms: _1  and  _3
REMARK    2  A    between atoms: _3  and  _4
REMARK    3  A    between atoms: _3  and  _6
REMARK    4  A    between atoms: _6  and  _7
REMARK    5  A    between atoms: _7  and  _8
REMARK    6  A    between atoms: _8  and  _9
REMARK    7  A    between atoms: _18  and  _20
REMARK    8  A    between atoms: _20  and  _21
REMARK    9  A    between atoms: _20  and  _23
REMARK   10  A    between atoms: _23  and  _24
REMARK   11  A    between atoms: _27  and  _29
REMARK   12  A    between atoms: _29  and  _30
REMARK   13  A    between atoms: _29  and  _32
REMARK   14  A    between atoms: _32  and  _33
REMARK   15  A    between atoms: _36  and  _38
REMARK   16  A    between atoms: _38  and  _39
REMARK   17  A    between atoms: _38  and  _41
REMARK   18  A    between atoms: _41  and  _42
REMARK   19  A    between atoms: _45  and  _47
REMARK   20  A    between atoms: _47  and  _48
REMARK   21  A    between atoms: _47  and  _50
REMARK   22  A    between atoms: _50  and  _51
REMARK   23  A    between atoms: _54  and  _56
REMARK   24  A    between atoms: _56  and  _57
REMARK   25  A    between atoms: _59  and  _61
REMARK   26  A    between atoms: _61  and  _62
REMARK   27  A    between atoms: _65  and  _67
REMARK   28  A    between atoms: _67  and  _68
REMARK   29  A    between atoms: _67  and  _70
REMARK   30  A    between atoms: _70  and  _71
REMARK   31  A    between atoms: _74  and  _76
REMARK   32  A    between atoms: _76  and  _77
REMARK   33  A    between atoms: _76  and  _79
REMARK   34  A    between atoms: _79  and  _80
REMARK   35  A    between atoms: _83  and  _85
REMARK   36  A    between atoms: _85  and  _86
REMARK   37  A    between atoms: _85  and  _88
REMARK   38  A    between atoms: _88  and  _89
REMARK   39  A    between atoms: _92  and  _94
REMARK   40  A    between atoms: _94  and  _95
REMARK   41  A    between atoms: _94  and  _97
REMARK   42  A    between atoms: _100  and  _102
REMARK   43  A    between atoms: _102  and  _103
REMARK   44  A    between atoms: _102  and  _105
REMARK   45  A    between atoms: _105  and  _106
REMARK   46  A    between atoms: _106  and  _107
REMARK   47  A    between atoms: _109  and  _111
REMARK   48  A    between atoms: _111  and  _112
REMARK   49  A    between atoms: _111  and  _114
REMARK   50  A    between atoms: _114  and  _115
REMARK   51  A    between atoms: _118  and  _120
REMARK   52  A    between atoms: _120  and  _121
REMARK   53  A    between atoms: _123  and  _125
REMARK   54  A    between atoms: _125  and  _126
REMARK   55  A    between atoms: _128  and  _130
REMARK   56  A    between atoms: _130  and  _131
REMARK   57  A    between atoms: _130  and  _133
REMARK   58  A    between atoms: _133  and  _134
REMARK   59  A    between atoms: _137  and  _139
REMARK   60  A    between atoms: _139  and  _140
REMARK   61  A    between atoms: _142  and  _144
REMARK   62  A    between atoms: _144  and  _145
REMARK   63  A    between atoms: _147  and  _149
REMARK   64  A    between atoms: _149  and  _150
REMARK   65  A    between atoms: _149  and  _152
REMARK   66  A    between atoms: _152  and  _153
REMARK   67  A    between atoms: _159  and  _161
REMARK   68  A    between atoms: _161  and  _162
REMARK   69  A    between atoms: _161  and  _164
REMARK   70  A    between atoms: _164  and  _165
REMARK   71  A    between atoms: _168  and  _170
REMARK   72  A    between atoms: _170  and  _171
REMARK   73  A    between atoms: _170  and  _173
REMARK   74  A    between atoms: _176  and  _178
REMARK   75  A    between atoms: _178  and  _179
REMARK   76  A    between atoms: _178  and  _181
REMARK   77  A    between atoms: _181  and  _182
REMARK   78  A    between atoms: _185  and  _187
REMARK   79  A    between atoms: _187  and  _188
REMARK   80  A    between atoms: _187  and  _190
REMARK   81  A    between atoms: _190  and  _191
REMARK   82  A    between atoms: _195  and  _196
REMARK   83  A    between atoms: _201  and  _203
REMARK   84  A    between atoms: _203  and  _204
REMARK   85  A    between atoms: _203  and  _206
REMARK   86  A    between atoms: _209  and  _211
REMARK   87  A    between atoms: _211  and  _212
REMARK   88  A    between atoms: _211  and  _214
REMARK   89  A    between atoms: _214  and  _215
REMARK   90  A    between atoms: _220  and  _222
REMARK   91  A    between atoms: _222  and  _223
REMARK   92  A    between atoms: _222  and  _225
REMARK   93  A    between atoms: _225  and  _226
REMARK   94  A    between atoms: _229  and  _231
REMARK   95  A    between atoms: _231  and  _232
REMARK   96  A    between atoms: _231  and  _234
REMARK   97  A    between atoms: _234  and  _235
REMARK   98  A    between atoms: _238  and  _240
REMARK   99  A    between atoms: _240  and  _241
REMARK  100  A    between atoms: _243  and  _245
REMARK  101  A    between atoms: _245  and  _246
REMARK  102  A    between atoms: _245  and  _248
REMARK  103  A    between atoms: _248  and  _249
REMARK  104  A    between atoms: _249  and  _250
REMARK  105  A    between atoms: _250  and  _251
REMARK  106  A    between atoms: _260  and  _262
REMARK  107  A    between atoms: _262  and  _263
REMARK  108  A    between atoms: _262  and  _265
REMARK  109  A    between atoms: _265  and  _266
REMARK  110  A    between atoms: _271  and  _273
REMARK  111  A    between atoms: _273  and  _274
REMARK  112  A    between atoms: _273  and  _276
REMARK  113  A    between atoms: _276  and  _277
REMARK  114  A    between atoms: _277  and  _278
REMARK  115  A    between atoms: _278  and  _279
REMARK  116  A    between atoms: _288  and  _290
REMARK  117  A    between atoms: _290  and  _291
REMARK  118  A    between atoms: _290  and  _293
REMARK  119  A    between atoms: _293  and  _294
REMARK  120  A    between atoms: _297  and  _299
REMARK  121  A    between atoms: _299  and  _300
REMARK  122  A    between atoms: _299  and  _302
REMARK  123  A    between atoms: _302  and  _303
REMARK  124  A    between atoms: _306  and  _308
REMARK  125  A    between atoms: _308  and  _309
REMARK  126  A    between atoms: _308  and  _311
REMARK  127  A    between atoms: _311  and  _312
REMARK  128  A    between atoms: _315  and  _317
REMARK  129  A    between atoms: _317  and  _318
REMARK  130  A    between atoms: _317  and  _320
REMARK  131  A    between atoms: _320  and  _321
REMARK  132  A    between atoms: _324  and  _326
REMARK  133  A    between atoms: _326  and  _327
REMARK  134  A    between atoms: _329  and  _331
REMARK  135  A    between atoms: _331  and  _332
REMARK  136  A    between atoms: _335  and  _337
REMARK  137  A    between atoms: _337  and  _338
REMARK  138  A    between atoms: _337  and  _340
REMARK  139  A    between atoms: _340  and  _341
REMARK  140  A    between atoms: _344  and  _346
REMARK  141  A    between atoms: _346  and  _347
REMARK  142  A    between atoms: _346  and  _349
REMARK  143  A    between atoms: _349  and  _350
REMARK  144  A    between atoms: _353  and  _355
REMARK  145  A    between atoms: _355  and  _356
REMARK  146  A    between atoms: _355  and  _358
REMARK  147  A    between atoms: _358  and  _359
REMARK  148  A    between atoms: _362  and  _364
REMARK  149  A    between atoms: _364  and  _365
REMARK  150  A    between atoms: _364  and  _367
REMARK  151  A    between atoms: _370  and  _372
REMARK  152  A    between atoms: _372  and  _373
REMARK  153  A    between atoms: _372  and  _375
REMARK  154  A    between atoms: _375  and  _376
REMARK  155  A    between atoms: _376  and  _377
REMARK  156  A    between atoms: _377  and  _378
REMARK  157  A    between atoms: _378  and  _379
REMARK  158  A    between atoms: _383  and  _385
REMARK  159  A    between atoms: _385  and  _386
REMARK  160  A    between atoms: _385  and  _388
REMARK  161  A    between atoms: _388  and  _389
REMARK  162  A    between atoms: _389  and  _390
REMARK  163  A    between atoms: _392  and  _394
REMARK  164  A    between atoms: _394  and  _395
REMARK  165  A    between atoms: _394  and  _397
REMARK  166  A    between atoms: _397  and  _398
REMARK  167  A    between atoms: _401  and  _403
REMARK  168  A    between atoms: _403  and  _404
REMARK  169  A    between atoms: _406  and  _408
REMARK  170  A    between atoms: _408  and  _409
REMARK  171  A    between atoms: _411  and  _413
REMARK  172  A    between atoms: _413  and  _414
REMARK  173  A    between atoms: _413  and  _416
REMARK  174  A    between atoms: _416  and  _417
REMARK  175  A    between atoms: _420  and  _422
REMARK  176  A    between atoms: _422  and  _423
REMARK  177  A    between atoms: _425  and  _427
REMARK  178  A    between atoms: _427  and  _428
REMARK  179  A    between atoms: _430  and  _432
REMARK  180  A    between atoms: _432  and  _433
REMARK  181  A    between atoms: _432  and  _435
REMARK  182  A    between atoms: _435  and  _436
REMARK  183  A    between atoms: _442  and  _444
REMARK  184  A    between atoms: _444  and  _445
REMARK  185  A    between atoms: _444  and  _447
REMARK  186  A    between atoms: _447  and  _448
REMARK  187  A    between atoms: _451  and  _453
REMARK  188  A    between atoms: _453  and  _454
REMARK  189  A    between atoms: _453  and  _456
REMARK  190  A    between atoms: _459  and  _461
REMARK  191  A    between atoms: _461  and  _462
REMARK  192  A    between atoms: _461  and  _464
REMARK  193  A    between atoms: _464  and  _465
REMARK  194  A    between atoms: _468  and  _470
REMARK  195  A    between atoms: _470  and  _471
REMARK  196  A    between atoms: _470  and  _473
REMARK  197  A    between atoms: _473  and  _474
REMARK  198  A    between atoms: _478  and  _479
REMARK  199  A    between atoms: _484  and  _486
REMARK  200  A    between atoms: _486  and  _487
REMARK  201  A    between atoms: _486  and  _489
REMARK  202  A    between atoms: _492  and  _494
REMARK  203  A    between atoms: _494  and  _495
REMARK  204  A    between atoms: _494  and  _497
REMARK  205  A    between atoms: _497  and  _498
REMARK  206  A    between atoms: _503  and  _505
REMARK  207  A    between atoms: _505  and  _506
REMARK  208  A    between atoms: _505  and  _508
REMARK  209  A    between atoms: _508  and  _509
REMARK  210  A    between atoms: _512  and  _514
REMARK  211  A    between atoms: _514  and  _515
REMARK  212  A    between atoms: _514  and  _517
REMARK  213  A    between atoms: _517  and  _518
REMARK  214  A    between atoms: _521  and  _523
REMARK  215  A    between atoms: _523  and  _524
REMARK  216  A    between atoms: _526  and  _528
REMARK  217  A    between atoms: _528  and  _529
REMARK  218  A    between atoms: _528  and  _531
REMARK  219  A    between atoms: _531  and  _532
REMARK  220  A    between atoms: _532  and  _533
REMARK  221  A    between atoms: _533  and  _534
REMARK                            x       y       z     vdW  Elec       q    Type
REMARK                         _______ _______ _______ _____ _____    ______ ____
ROOT
ATOM      1  O   HOH     1       5.031  -2.749  12.396  0.00  0.00    +0.000 OA
ENDROOT
TORSDOF 0
REMARK  Name = ../refined-set-2016/1mtr/1mtr_pocket.pdb
REMARK  221 active torsions:
REMARK  status: ('A' for Active; 'I' for Inactive)
REMARK    1  A    between atoms: _1  and  _3
REMARK    2  A    between atoms: _3  and  _4
REMARK    3  A    between atoms: _3  and  _6
REMARK    4  A    between atoms: _6  and  _7
REMARK    5  A    between atoms: _7  and  _8
REMARK    6  A    between atoms: _8  and  _9
REMARK    7  A    between atoms: _18  and  _20
REMARK    8  A    between atoms: _20  and  _21
REMARK    9  A    between atoms: _20  and  _23
REMARK   10  A    between atoms: _23  and  _24
REMARK   11  A    between atoms: _27  and  _29
REMARK   12  A    between atoms: _29  and  _30
REMARK   13  A    between atoms: _29  and  _32
REMARK   14  A    between atoms: _32  and  _33
REMARK   15  A    between atoms: _36  and  _38
REMARK   16  A    between atoms: _38  and  _39
REMARK   17  A    between atoms: _38  and  _41
REMARK   18  A    between atoms: _41  and  _42
REMARK   19  A    between atoms: _45  and  _47
REMARK   20  A    between atoms: _47  and  _48
REMARK   21  A    between atoms: _47  and  _50
REMARK   22  A    between atoms: _50  and  _51
REMARK   23  A    between atoms: _54  and  _56
REMARK   24  A    between atoms: _56  and  _57
REMARK   25  A    between atoms: _59  and  _61
REMARK   26  A    between atoms: _61  and  _62
REMARK   27  A    between atoms: _65  and  _67
REMARK   28  A    between atoms: _67  and  _68
REMARK   29  A    between atoms: _67  and  _70
REMARK   30  A    between atoms: _70  and  _71
REMARK   31  A    between atoms: _74  and  _76
REMARK   32  A    between atoms: _76  and  _77
REMARK   33  A    between atoms: _76  and  _79
REMARK   34  A    between atoms: _79  and  _80
REMARK   35  A    between atoms: _83  and  _85
REMARK   36  A    between atoms: _85  and  _86
REMARK   37  A    between atoms: _85  and  _88
REMARK   38  A    between atoms: _88  and  _89
REMARK   39  A    between atoms: _92  and  _94
REMARK   40  A    between atoms: _94  and  _95
REMARK   41  A    between atoms: _94  and  _97
REMARK   42  A    between atoms: _100  and  _102
REMARK   43  A    between atoms: _102  and  _103
REMARK   44  A    between atoms: _102  and  _105
REMARK   45  A    between atoms: _105  and  _106
REMARK   46  A    between atoms: _106  and  _107
REMARK   47  A    between atoms: _109  and  _111
REMARK   48  A    between atoms: _111  and  _112
REMARK   49  A    between atoms: _111  and  _114
REMARK   50  A    between atoms: _114  and  _115
REMARK   51  A    between atoms: _118  and  _120
REMARK   52  A    between atoms: _120  and  _121
REMARK   53  A    between atoms: _123  and  _125
REMARK   54  A    between atoms: _125  and  _126
REMARK   55  A    between atoms: _128  and  _130
REMARK   56  A    between atoms: _130  and  _131
REMARK   57  A    between atoms: _130  and  _133
REMARK   58  A    between atoms: _133  and  _134
REMARK   59  A    between atoms: _137  and  _139
REMARK   60  A    between atoms: _139  and  _140
REMARK   61  A    between atoms: _142  and  _144
REMARK   62  A    between atoms: _144  and  _145
REMARK   63  A    between atoms: _147  and  _149
REMARK   64  A    between atoms: _149  and  _150
REMARK   65  A    between atoms: _149  and  _152
REMARK   66  A    between atoms: _152  and  _153
REMARK   67  A    between atoms: _159  and  _161
REMARK   68  A    between atoms: _161  and  _162
REMARK   69  A    between atoms: _161  and  _164
REMARK   70  A    between atoms: _164  and  _165
REMARK   71  A    between atoms: _168  and  _170
REMARK   72  A    between atoms: _170  and  _171
REMARK   73  A    between atoms: _170  and  _173
REMARK   74  A    between atoms: _176  and  _178
REMARK   75  A    between atoms: _178  and  _179
REMARK   76  A    between atoms: _178  and  _181
REMARK   77  A    between atoms: _181  and  _182
REMARK   78  A    between atoms: _185  and  _187
REMARK   79  A    between atoms: _187  and  _188
REMARK   80  A    between atoms: _187  and  _190
REMARK   81  A    between atoms: _190  and  _191
REMARK   82  A    between atoms: _195  and  _196
REMARK   83  A    between atoms: _201  and  _203
REMARK   84  A    between atoms: _203  and  _204
REMARK   85  A    between atoms: _203  and  _206
REMARK   86  A    between atoms: _209  and  _211
REMARK   87  A    between atoms: _211  and  _212
REMARK   88  A    between atoms: _211  and  _214
REMARK   89  A    between atoms: _214  and  _215
REMARK   90  A    between atoms: _220  and  _222
REMARK   91  A    between atoms: _222  and  _223
REMARK   92  A    between atoms: _222  and  _225
REMARK   93  A    between atoms: _225  and  _226
REMARK   94  A    between atoms: _229  and  _231
REMARK   95  A    between atoms: _231  and  _232
REMARK   96  A    between atoms: _231  and  _234
REMARK   97  A    between atoms: _234  and  _235
REMARK   98  A    between atoms: _238  and  _240
REMARK   99  A    between atoms: _240  and  _241
REMARK  100  A    between atoms: _243  and  _245
REMARK  101  A    between atoms: _245  and  _246
REMARK  102  A    between atoms: _245  and  _248
REMARK  103  A    between atoms: _248  and  _249
REMARK  104  A    between atoms: _249  and  _250
REMARK  105  A    between atoms: _250  and  _251
REMARK  106  A    between atoms: _260  and  _262
REMARK  107  A    between atoms: _262  and  _263
REMARK  108  A    between atoms: _262  and  _265
REMARK  109  A    between atoms: _265  and  _266
REMARK  110  A    between atoms: _271  and  _273
REMARK  111  A    between atoms: _273  and  _274
REMARK  112  A    between atoms: _273  and  _276
REMARK  113  A    between atoms: _276  and  _277
REMARK  114  A    between atoms: _277  and  _278
REMARK  115  A    between atoms: _278  and  _279
REMARK  116  A    between atoms: _288  and  _290
REMARK  117  A    between atoms: _290  and  _291
REMARK  118  A    between atoms: _290  and  _293
REMARK  119  A    between atoms: _293  and  _294
REMARK  120  A    between atoms: _297  and  _299
REMARK  121  A    between atoms: _299  and  _300
REMARK  122  A    between atoms: _299  and  _302
REMARK  123  A    between atoms: _302  and  _303
REMARK  124  A    between atoms: _306  and  _308
REMARK  125  A    between atoms: _308  and  _309
REMARK  126  A    between atoms: _308  and  _311
REMARK  127  A    between atoms: _311  and  _312
REMARK  128  A    between atoms: _315  and  _317
REMARK  129  A    between atoms: _317  and  _318
REMARK  130  A    between atoms: _317  and  _320
REMARK  131  A    between atoms: _320  and  _321
REMARK  132  A    between atoms: _324  and  _326
REMARK  133  A    between atoms: _326  and  _327
REMARK  134  A    between atoms: _329  and  _331
REMARK  135  A    between atoms: _331  and  _332
REMARK  136  A    between atoms: _335  and  _337
REMARK  137  A    between atoms: _337  and  _338
REMARK  138  A    between atoms: _337  and  _340
REMARK  139  A    between atoms: _340  and  _341
REMARK  140  A    between atoms: _344  and  _346
REMARK  141  A    between atoms: _346  and  _347
REMARK  142  A    between atoms: _346  and  _349
REMARK  143  A    between atoms: _349  and  _350
REMARK  144  A    between atoms: _353  and  _355
REMARK  145  A    between atoms: _355  and  _356
REMARK  146  A    between atoms: _355  and  _358
REMARK  147  A    between atoms: _358  and  _359
REMARK  148  A    between atoms: _362  and  _364
REMARK  149  A    between atoms: _364  and  _365
REMARK  150  A    between atoms: _364  and  _367
REMARK  151  A    between atoms: _370  and  _372
REMARK  152  A    between atoms: _372  and  _373
REMARK  153  A    between atoms: _372  and  _375
REMARK  154  A    between atoms: _375  and  _376
REMARK  155  A    between atoms: _376  and  _377
REMARK  156  A    between atoms: _377  and  _378
REMARK  157  A    between atoms: _378  and  _379
REMARK  158  A    between atoms: _383  and  _385
REMARK  159  A    between atoms: _385  and  _386
REMARK  160  A    between atoms: _385  and  _388
REMARK  161  A    between atoms: _388  and  _389
REMARK  162  A    between atoms: _389  and  _390
REMARK  163  A    between atoms: _392  and  _394
REMARK  164  A    between atoms: _394  and  _395
REMARK  165  A    between atoms: _394  and  _397
REMARK  166  A    between atoms: _397  and  _398
REMARK  167  A    between atoms: _401  and  _403
REMARK  168  A    between atoms: _403  and  _404
REMARK  169  A    between atoms: _406  and  _408
REMARK  170  A    between atoms: _408  and  _409
REMARK  171  A    between atoms: _411  and  _413
REMARK  172  A    between atoms: _413  and  _414
REMARK  173  A    between atoms: _413  and  _416
REMARK  174  A    between atoms: _416  and  _417
REMARK  175  A    between atoms: _420  and  _422
REMARK  176  A    between atoms: _422  and  _423
REMARK  177  A    between atoms: _425  and  _427
REMARK  178  A    between atoms: _427  and  _428
REMARK  179  A    between atoms: _430  and  _432
REMARK  180  A    between atoms: _432  and  _433
REMARK  181  A    between atoms: _432  and  _435
REMARK  182  A    between atoms: _435  and  _436
REMARK  183  A    between atoms: _442  and  _444
REMARK  184  A    between atoms: _444  and  _445
REMARK  185  A    between atoms: _444  and  _447
REMARK  186  A    between atoms: _447  and  _448
REMARK  187  A    between atoms: _451  and  _453
REMARK  188  A    between atoms: _453  and  _454
REMARK  189  A    between atoms: _453  and  _456
REMARK  190  A    between atoms: _459  and  _461
REMARK  191  A    between atoms: _461  and  _462
REMARK  192  A    between atoms: _461  and  _464
REMARK  193  A    between atoms: _464  and  _465
REMARK  194  A    between atoms: _468  and  _470
REMARK  195  A    between atoms: _470  and  _471
REMARK  196  A    between atoms: _470  and  _473
REMARK  197  A    between atoms: _473  and  _474
REMARK  198  A    between atoms: _478  and  _479
REMARK  199  A    between atoms: _484  and  _486
REMARK  200  A    between atoms: _486  and  _487
REMARK  201  A    between atoms: _486  and  _489
REMARK  202  A    between atoms: _492  and  _494
REMARK  203  A    between atoms: _494  and  _495
REMARK  204  A    between atoms: _494  and  _497
REMARK  205  A    between atoms: _497  and  _498
REMARK  206  A    between atoms: _503  and  _505
REMARK  207  A    between atoms: _505  and  _506
REMARK  208  A    between atoms: _505  and  _508
REMARK  209  A    between atoms: _508  and  _509
REMARK  210  A    between atoms: _512  and  _514
REMARK  211  A    between atoms: _514  and  _515
REMARK  212  A    between atoms: _514  and  _517
REMARK  213  A    between atoms: _517  and  _518
REMARK  214  A    between atoms: _521  and  _523
REMARK  215  A    between atoms: _523  and  _524
REMARK  216  A    between atoms: _526  and  _528
REMARK  217  A    between atoms: _528  and  _529
REMARK  218  A    between atoms: _528  and  _531
REMARK  219  A    between atoms: _531  and  _532
REMARK  220  A    between atoms: _532  and  _533
REMARK  221  A    between atoms: _533  and  _534
REMARK                            x       y       z     vdW  Elec       q    Type
REMARK                         _______ _______ _______ _____ _____    ______ ____
ROOT
ATOM      1  O   HOH     1      16.003  -6.007  21.021  0.00  0.00    +0.000 OA
ENDROOT
TORSDOF 0
REMARK  Name = ../refined-set-2016/1mtr/1mtr_pocket.pdb
REMARK  221 active torsions:
REMARK  status: ('A' for Active; 'I' for Inactive)
REMARK    1  A    between atoms: _1  and  _3
REMARK    2  A    between atoms: _3  and  _4
REMARK    3  A    between atoms: _3  and  _6
REMARK    4  A    between atoms: _6  and  _7
REMARK    5  A    between atoms: _7  and  _8
REMARK    6  A    between atoms: _8  and  _9
REMARK    7  A    between atoms: _18  and  _20
REMARK    8  A    between atoms: _20  and  _21
REMARK    9  A    between atoms: _20  and  _23
REMARK   10  A    between atoms: _23  and  _24
REMARK   11  A    between atoms: _27  and  _29
REMARK   12  A    between atoms: _29  and  _30
REMARK   13  A    between atoms: _29  and  _32
REMARK   14  A    between atoms: _32  and  _33
REMARK   15  A    between atoms: _36  and  _38
REMARK   16  A    between atoms: _38  and  _39
REMARK   17  A    between atoms: _38  and  _41
REMARK   18  A    between atoms: _41  and  _42
REMARK   19  A    between atoms: _45  and  _47
REMARK   20  A    between atoms: _47  and  _48
REMARK   21  A    between atoms: _47  and  _50
REMARK   22  A    between atoms: _50  and  _51
REMARK   23  A    between atoms: _54  and  _56
REMARK   24  A    between atoms: _56  and  _57
REMARK   25  A    between atoms: _59  and  _61
REMARK   26  A    between atoms: _61  and  _62
REMARK   27  A    between atoms: _65  and  _67
REMARK   28  A    between atoms: _67  and  _68
REMARK   29  A    between atoms: _67  and  _70
REMARK   30  A    between atoms: _70  and  _71
REMARK   31  A    between atoms: _74  and  _76
REMARK   32  A    between atoms: _76  and  _77
REMARK   33  A    between atoms: _76  and  _79
REMARK   34  A    between atoms: _79  and  _80
REMARK   35  A    between atoms: _83  and  _85
REMARK   36  A    between atoms: _85  and  _86
REMARK   37  A    between atoms: _85  and  _88
REMARK   38  A    between atoms: _88  and  _89
REMARK   39  A    between atoms: _92  and  _94
REMARK   40  A    between atoms: _94  and  _95
REMARK   41  A    between atoms: _94  and  _97
REMARK   42  A    between atoms: _100  and  _102
REMARK   43  A    between atoms: _102  and  _103
REMARK   44  A    between atoms: _102  and  _105
REMARK   45  A    between atoms: _105  and  _106
REMARK   46  A    between atoms: _106  and  _107
REMARK   47  A    between atoms: _109  and  _111
REMARK   48  A    between atoms: _111  and  _112
REMARK   49  A    between atoms: _111  and  _114
REMARK   50  A    between atoms: _114  and  _115
REMARK   51  A    between atoms: _118  and  _120
REMARK   52  A    between atoms: _120  and  _121
REMARK   53  A    between atoms: _123  and  _125
REMARK   54  A    between atoms: _125  and  _126
REMARK   55  A    between atoms: _128  and  _130
REMARK   56  A    between atoms: _130  and  _131
REMARK   57  A    between atoms: _130  and  _133
REMARK   58  A    between atoms: _133  and  _134
REMARK   59  A    between atoms: _137  and  _139
REMARK   60  A    between atoms: _139  and  _140
REMARK   61  A    between atoms: _142  and  _144
REMARK   62  A    between atoms: _144  and  _145
REMARK   63  A    between atoms: _147  and  _149
REMARK   64  A    between atoms: _149  and  _150
REMARK   65  A    between atoms: _149  and  _152
REMARK   66  A    between atoms: _152  and  _153
REMARK   67  A    between atoms: _159  and  _161
REMARK   68  A    between atoms: _161  and  _162
REMARK   69  A    between atoms: _161  and  _164
REMARK   70  A    between atoms: _164  and  _165
REMARK   71  A    between atoms: _168  and  _170
REMARK   72  A    between atoms: _170  and  _171
REMARK   73  A    between atoms: _170  and  _173
REMARK   74  A    between atoms: _176  and  _178
REMARK   75  A    between atoms: _178  and  _179
REMARK   76  A    between atoms: _178  and  _181
REMARK   77  A    between atoms: _181  and  _182
REMARK   78  A    between atoms: _185  and  _187
REMARK   79  A    between atoms: _187  and  _188
REMARK   80  A    between atoms: _187  and  _190
REMARK   81  A    between atoms: _190  and  _191
REMARK   82  A    between atoms: _195  and  _196
REMARK   83  A    between atoms: _201  and  _203
REMARK   84  A    between atoms: _203  and  _204
REMARK   85  A    between atoms: _203  and  _206
REMARK   86  A    between atoms: _209  and  _211
REMARK   87  A    between atoms: _211  and  _212
REMARK   88  A    between atoms: _211  and  _214
REMARK   89  A    between atoms: _214  and  _215
REMARK   90  A    between atoms: _220  and  _222
REMARK   91  A    between atoms: _222  and  _223
REMARK   92  A    between atoms: _222  and  _225
REMARK   93  A    between atoms: _225  and  _226
REMARK   94  A    between atoms: _229  and  _231
REMARK   95  A    between atoms: _231  and  _232
REMARK   96  A    between atoms: _231  and  _234
REMARK   97  A    between atoms: _234  and  _235
REMARK   98  A    between atoms: _238  and  _240
REMARK   99  A    between atoms: _240  and  _241
REMARK  100  A    between atoms: _243  and  _245
REMARK  101  A    between atoms: _245  and  _246
REMARK  102  A    between atoms: _245  and  _248
REMARK  103  A    between atoms: _248  and  _249
REMARK  104  A    between atoms: _249  and  _250
REMARK  105  A    between atoms: _250  and  _251
REMARK  106  A    between atoms: _260  and  _262
REMARK  107  A    between atoms: _262  and  _263
REMARK  108  A    between atoms: _262  and  _265
REMARK  109  A    between atoms: _265  and  _266
REMARK  110  A    between atoms: _271  and  _273
REMARK  111  A    between atoms: _273  and  _274
REMARK  112  A    between atoms: _273  and  _276
REMARK  113  A    between atoms: _276  and  _277
REMARK  114  A    between atoms: _277  and  _278
REMARK  115  A    between atoms: _278  and  _279
REMARK  116  A    between atoms: _288  and  _290
REMARK  117  A    between atoms: _290  and  _291
REMARK  118  A    between atoms: _290  and  _293
REMARK  119  A    between atoms: _293  and  _294
REMARK  120  A    between atoms: _297  and  _299
REMARK  121  A    between atoms: _299  and  _300
REMARK  122  A    between atoms: _299  and  _302
REMARK  123  A    between atoms: _302  and  _303
REMARK  124  A    between atoms: _306  and  _308
REMARK  125  A    between atoms: _308  and  _309
REMARK  126  A    between atoms: _308  and  _311
REMARK  127  A    between atoms: _311  and  _312
REMARK  128  A    between atoms: _315  and  _317
REMARK  129  A    between atoms: _317  and  _318
REMARK  130  A    between atoms: _317  and  _320
REMARK  131  A    between atoms: _320  and  _321
REMARK  132  A    between atoms: _324  and  _326
REMARK  133  A    between atoms: _326  and  _327
REMARK  134  A    between atoms: _329  and  _331
REMARK  135  A    between atoms: _331  and  _332
REMARK  136  A    between atoms: _335  and  _337
REMARK  137  A    between atoms: _337  and  _338
REMARK  138  A    between atoms: _337  and  _340
REMARK  139  A    between atoms: _340  and  _341
REMARK  140  A    between atoms: _344  and  _346
REMARK  141  A    between atoms: _346  and  _347
REMARK  142  A    between atoms: _346  and  _349
REMARK  143  A    between atoms: _349  and  _350
REMARK  144  A    between atoms: _353  and  _355
REMARK  145  A    between atoms: _355  and  _356
REMARK  146  A    between atoms: _355  and  _358
REMARK  147  A    between atoms: _358  and  _359
REMARK  148  A    between atoms: _362  and  _364
REMARK  149  A    between atoms: _364  and  _365
REMARK  150  A    between atoms: _364  and  _367
REMARK  151  A    between atoms: _370  and  _372
REMARK  152  A    between atoms: _372  and  _373
REMARK  153  A    between atoms: _372  and  _375
REMARK  154  A    between atoms: _375  and  _376
REMARK  155  A    between atoms: _376  and  _377
REMARK  156  A    between atoms: _377  and  _378
REMARK  157  A    between atoms: _378  and  _379
REMARK  158  A    between atoms: _383  and  _385
REMARK  159  A    between atoms: _385  and  _386
REMARK  160  A    between atoms: _385  and  _388
REMARK  161  A    between atoms: _388  and  _389
REMARK  162  A    between atoms: _389  and  _390
REMARK  163  A    between atoms: _392  and  _394
REMARK  164  A    between atoms: _394  and  _395
REMARK  165  A    between atoms: _394  and  _397
REMARK  166  A    between atoms: _397  and  _398
REMARK  167  A    between atoms: _401  and  _403
REMARK  168  A    between atoms: _403  and  _404
REMARK  169  A    between atoms: _406  and  _408
REMARK  170  A    between atoms: _408  and  _409
REMARK  171  A    between atoms: _411  and  _413
REMARK  172  A    between atoms: _413  and  _414
REMARK  173  A    between atoms: _413  and  _416
REMARK  174  A    between atoms: _416  and  _417
REMARK  175  A    between atoms: _420  and  _422
REMARK  176  A    between atoms: _422  and  _423
REMARK  177  A    between atoms: _425  and  _427
REMARK  178  A    between atoms: _427  and  _428
REMARK  179  A    between atoms: _430  and  _432
REMARK  180  A    between atoms: _432  and  _433
REMARK  181  A    between atoms: _432  and  _435
REMARK  182  A    between atoms: _435  and  _436
REMARK  183  A    between atoms: _442  and  _444
REMARK  184  A    between atoms: _444  and  _445
REMARK  185  A    between atoms: _444  and  _447
REMARK  186  A    between atoms: _447  and  _448
REMARK  187  A    between atoms: _451  and  _453
REMARK  188  A    between atoms: _453  and  _454
REMARK  189  A    between atoms: _453  and  _456
REMARK  190  A    between atoms: _459  and  _461
REMARK  191  A    between atoms: _461  and  _462
REMARK  192  A    between atoms: _461  and  _464
REMARK  193  A    between atoms: _464  and  _465
REMARK  194  A    between atoms: _468  and  _470
REMARK  195  A    between atoms: _470  and  _471
REMARK  196  A    between atoms: _470  and  _473
REMARK  197  A    between atoms: _473  and  _474
REMARK  198  A    between atoms: _478  and  _479
REMARK  199  A    between atoms: _484  and  _486
REMARK  200  A    between atoms: _486  and  _487
REMARK  201  A    between atoms: _486  and  _489
REMARK  202  A    between atoms: _492  and  _494
REMARK  203  A    between atoms: _494  and  _495
REMARK  204  A    between atoms: _494  and  _497
REMARK  205  A    between atoms: _497  and  _498
REMARK  206  A    between atoms: _503  and  _505
REMARK  207  A    between atoms: _505  and  _506
REMARK  208  A    between atoms: _505  and  _508
REMARK  209  A    between atoms: _508  and  _509
REMARK  210  A    between atoms: _512  and  _514
REMARK  211  A    between atoms: _514  and  _515
REMARK  212  A    between atoms: _514  and  _517
REMARK  213  A    between atoms: _517  and  _518
REMARK  214  A    between atoms: _521  and  _523
REMARK  215  A    between atoms: _523  and  _524
REMARK  216  A    between atoms: _526  and  _528
REMARK  217  A    between atoms: _528  and  _529
REMARK  218  A    between atoms: _528  and  _531
REMARK  219  A    between atoms: _531  and  _532
REMARK  220  A    between atoms: _532  and  _533
REMARK  221  A    between atoms: _533  and  _534
REMARK                            x       y       z     vdW  Elec       q    Type
REMARK                         _______ _______ _______ _____ _____    ______ ____
ROOT
ATOM      1  O   HOH     1      -0.237  -7.853   8.773  0.00  0.00    +0.000 OA
ENDROOT
TORSDOF 0
REMARK  Name = ../refined-set-2016/1mtr/1mtr_pocket.pdb
REMARK  221 active torsions:
REMARK  status: ('A' for Active; 'I' for Inactive)
REMARK    1  A    between atoms: _1  and  _3
REMARK    2  A    between atoms: _3  and  _4
REMARK    3  A    between atoms: _3  and  _6
REMARK    4  A    between atoms: _6  and  _7
REMARK    5  A    between atoms: _7  and  _8
REMARK    6  A    between atoms: _8  and  _9
REMARK    7  A    between atoms: _18  and  _20
REMARK    8  A    between atoms: _20  and  _21
REMARK    9  A    between atoms: _20  and  _23
REMARK   10  A    between atoms: _23  and  _24
REMARK   11  A    between atoms: _27  and  _29
REMARK   12  A    between atoms: _29  and  _30
REMARK   13  A    between atoms: _29  and  _32
REMARK   14  A    between atoms: _32  and  _33
REMARK   15  A    between atoms: _36  and  _38
REMARK   16  A    between atoms: _38  and  _39
REMARK   17  A    between atoms: _38  and  _41
REMARK   18  A    between atoms: _41  and  _42
REMARK   19  A    between atoms: _45  and  _47
REMARK   20  A    between atoms: _47  and  _48
REMARK   21  A    between atoms: _47  and  _50
REMARK   22  A    between atoms: _50  and  _51
REMARK   23  A    between atoms: _54  and  _56
REMARK   24  A    between atoms: _56  and  _57
REMARK   25  A    between atoms: _59  and  _61
REMARK   26  A    between atoms: _61  and  _62
REMARK   27  A    between atoms: _65  and  _67
REMARK   28  A    between atoms: _67  and  _68
REMARK   29  A    between atoms: _67  and  _70
REMARK   30  A    between atoms: _70  and  _71
REMARK   31  A    between atoms: _74  and  _76
REMARK   32  A    between atoms: _76  and  _77
REMARK   33  A    between atoms: _76  and  _79
REMARK   34  A    between atoms: _79  and  _80
REMARK   35  A    between atoms: _83  and  _85
REMARK   36  A    between atoms: _85  and  _86
REMARK   37  A    between atoms: _85  and  _88
REMARK   38  A    between atoms: _88  and  _89
REMARK   39  A    between atoms: _92  and  _94
REMARK   40  A    between atoms: _94  and  _95
REMARK   41  A    between atoms: _94  and  _97
REMARK   42  A    between atoms: _100  and  _102
REMARK   43  A    between atoms: _102  and  _103
REMARK   44  A    between atoms: _102  and  _105
REMARK   45  A    between atoms: _105  and  _106
REMARK   46  A    between atoms: _106  and  _107
REMARK   47  A    between atoms: _109  and  _111
REMARK   48  A    between atoms: _111  and  _112
REMARK   49  A    between atoms: _111  and  _114
REMARK   50  A    between atoms: _114  and  _115
REMARK   51  A    between atoms: _118  and  _120
REMARK   52  A    between atoms: _120  and  _121
REMARK   53  A    between atoms: _123  and  _125
REMARK   54  A    between atoms: _125  and  _126
REMARK   55  A    between atoms: _128  and  _130
REMARK   56  A    between atoms: _130  and  _131
REMARK   57  A    between atoms: _130  and  _133
REMARK   58  A    between atoms: _133  and  _134
REMARK   59  A    between atoms: _137  and  _139
REMARK   60  A    between atoms: _139  and  _140
REMARK   61  A    between atoms: _142  and  _144
REMARK   62  A    between atoms: _144  and  _145
REMARK   63  A    between atoms: _147  and  _149
REMARK   64  A    between atoms: _149  and  _150
REMARK   65  A    between atoms: _149  and  _152
REMARK   66  A    between atoms: _152  and  _153
REMARK   67  A    between atoms: _159  and  _161
REMARK   68  A    between atoms: _161  and  _162
REMARK   69  A    between atoms: _161  and  _164
REMARK   70  A    between atoms: _164  and  _165
REMARK   71  A    between atoms: _168  and  _170
REMARK   72  A    between atoms: _170  and  _171
REMARK   73  A    between atoms: _170  and  _173
REMARK   74  A    between atoms: _176  and  _178
REMARK   75  A    between atoms: _178  and  _179
REMARK   76  A    between atoms: _178  and  _181
REMARK   77  A    between atoms: _181  and  _182
REMARK   78  A    between atoms: _185  and  _187
REMARK   79  A    between atoms: _187  and  _188
REMARK   80  A    between atoms: _187  and  _190
REMARK   81  A    between atoms: _190  and  _191
REMARK   82  A    between atoms: _195  and  _196
REMARK   83  A    between atoms: _201  and  _203
REMARK   84  A    between atoms: _203  and  _204
REMARK   85  A    between atoms: _203  and  _206
REMARK   86  A    between atoms: _209  and  _211
REMARK   87  A    between atoms: _211  and  _212
REMARK   88  A    between atoms: _211  and  _214
REMARK   89  A    between atoms: _214  and  _215
REMARK   90  A    between atoms: _220  and  _222
REMARK   91  A    between atoms: _222  and  _223
REMARK   92  A    between atoms: _222  and  _225
REMARK   93  A    between atoms: _225  and  _226
REMARK   94  A    between atoms: _229  and  _231
REMARK   95  A    between atoms: _231  and  _232
REMARK   96  A    between atoms: _231  and  _234
REMARK   97  A    between atoms: _234  and  _235
REMARK   98  A    between atoms: _238  and  _240
REMARK   99  A    between atoms: _240  and  _241
REMARK  100  A    between atoms: _243  and  _245
REMARK  101  A    between atoms: _245  and  _246
REMARK  102  A    between atoms: _245  and  _248
REMARK  103  A    between atoms: _248  and  _249
REMARK  104  A    between atoms: _249  and  _250
REMARK  105  A    between atoms: _250  and  _251
REMARK  106  A    between atoms: _260  and  _262
REMARK  107  A    between atoms: _262  and  _263
REMARK  108  A    between atoms: _262  and  _265
REMARK  109  A    between atoms: _265  and  _266
REMARK  110  A    between atoms: _271  and  _273
REMARK  111  A    between atoms: _273  and  _274
REMARK  112  A    between atoms: _273  and  _276
REMARK  113  A    between atoms: _276  and  _277
REMARK  114  A    between atoms: _277  and  _278
REMARK  115  A    between atoms: _278  and  _279
REMARK  116  A    between atoms: _288  and  _290
REMARK  117  A    between atoms: _290  and  _291
REMARK  118  A    between atoms: _290  and  _293
REMARK  119  A    between atoms: _293  and  _294
REMARK  120  A    between atoms: _297  and  _299
REMARK  121  A    between atoms: _299  and  _300
REMARK  122  A    between atoms: _299  and  _302
REMARK  123  A    between atoms: _302  and  _303
REMARK  124  A    between atoms: _306  and  _308
REMARK  125  A    between atoms: _308  and  _309
REMARK  126  A    between atoms: _308  and  _311
REMARK  127  A    between atoms: _311  and  _312
REMARK  128  A    between atoms: _315  and  _317
REMARK  129  A    between atoms: _317  and  _318
REMARK  130  A    between atoms: _317  and  _320
REMARK  131  A    between atoms: _320  and  _321
REMARK  132  A    between atoms: _324  and  _326
REMARK  133  A    between atoms: _326  and  _327
REMARK  134  A    between atoms: _329  and  _331
REMARK  135  A    between atoms: _331  and  _332
REMARK  136  A    between atoms: _335  and  _337
REMARK  137  A    between atoms: _337  and  _338
REMARK  138  A    between atoms: _337  and  _340
REMARK  139  A    between atoms: _340  and  _341
REMARK  140  A    between atoms: _344  and  _346
REMARK  141  A    between atoms: _346  and  _347
REMARK  142  A    between atoms: _346  and  _349
REMARK  143  A    between atoms: _349  and  _350
REMARK  144  A    between atoms: _353  and  _355
REMARK  145  A    between atoms: _355  and  _356
REMARK  146  A    between atoms: _355  and  _358
REMARK  147  A    between atoms: _358  and  _359
REMARK  148  A    between atoms: _362  and  _364
REMARK  149  A    between atoms: _364  and  _365
REMARK  150  A    between atoms: _364  and  _367
REMARK  151  A    between atoms: _370  and  _372
REMARK  152  A    between atoms: _372  and  _373
REMARK  153  A    between atoms: _372  and  _375
REMARK  154  A    between atoms: _375  and  _376
REMARK  155  A    between atoms: _376  and  _377
REMARK  156  A    between atoms: _377  and  _378
REMARK  157  A    between atoms: _378  and  _379
REMARK  158  A    between atoms: _383  and  _385
REMARK  159  A    between atoms: _385  and  _386
REMARK  160  A    between atoms: _385  and  _388
REMARK  161  A    between atoms: _388  and  _389
REMARK  162  A    between atoms: _389  and  _390
REMARK  163  A    between atoms: _392  and  _394
REMARK  164  A    between atoms: _394  and  _395
REMARK  165  A    between atoms: _394  and  _397
REMARK  166  A    between atoms: _397  and  _398
REMARK  167  A    between atoms: _401  and  _403
REMARK  168  A    between atoms: _403  and  _404
REMARK  169  A    between atoms: _406  and  _408
REMARK  170  A    between atoms: _408  and  _409
REMARK  171  A    between atoms: _411  and  _413
REMARK  172  A    between atoms: _413  and  _414
REMARK  173  A    between atoms: _413  and  _416
REMARK  174  A    between atoms: _416  and  _417
REMARK  175  A    between atoms: _420  and  _422
REMARK  176  A    between atoms: _422  and  _423
REMARK  177  A    between atoms: _425  and  _427
REMARK  178  A    between atoms: _427  and  _428
REMARK  179  A    between atoms: _430  and  _432
REMARK  180  A    between atoms: _432  and  _433
REMARK  181  A    between atoms: _432  and  _435
REMARK  182  A    between atoms: _435  and  _436
REMARK  183  A    between atoms: _442  and  _444
REMARK  184  A    between atoms: _444  and  _445
REMARK  185  A    between atoms: _444  and  _447
REMARK  186  A    between atoms: _447  and  _448
REMARK  187  A    between atoms: _451  and  _453
REMARK  188  A    between atoms: _453  and  _454
REMARK  189  A    between atoms: _453  and  _456
REMARK  190  A    between atoms: _459  and  _461
REMARK  191  A    between atoms: _461  and  _462
REMARK  192  A    between atoms: _461  and  _464
REMARK  193  A    between atoms: _464  and  _465
REMARK  194  A    between atoms: _468  and  _470
REMARK  195  A    between atoms: _470  and  _471
REMARK  196  A    between atoms: _470  and  _473
REMARK  197  A    between atoms: _473  and  _474
REMARK  198  A    between atoms: _478  and  _479
REMARK  199  A    between atoms: _484  and  _486
REMARK  200  A    between atoms: _486  and  _487
REMARK  201  A    between atoms: _486  and  _489
REMARK  202  A    between atoms: _492  and  _494
REMARK  203  A    between atoms: _494  and  _495
REMARK  204  A    between atoms: _494  and  _497
REMARK  205  A    between atoms: _497  and  _498
REMARK  206  A    between atoms: _503  and  _505
REMARK  207  A    between atoms: _505  and  _506
REMARK  208  A    between atoms: _505  and  _508
REMARK  209  A    between atoms: _508  and  _509
REMARK  210  A    between atoms: _512  and  _514
REMARK  211  A    between atoms: _514  and  _515
REMARK  212  A    between atoms: _514  and  _517
REMARK  213  A    between atoms: _517  and  _518
REMARK  214  A    between atoms: _521  and  _523
REMARK  215  A    between atoms: _523  and  _524
REMARK  216  A    between atoms: _526  and  _528
REMARK  217  A    between atoms: _528  and  _529
REMARK  218  A    between atoms: _528  and  _531
REMARK  219  A    between atoms: _531  and  _532
REMARK  220  A    between atoms: _532  and  _533
REMARK  221  A    between atoms: _533  and  _534
REMARK                            x       y       z     vdW  Elec       q    Type
REMARK                         _______ _______ _______ _____ _____    ______ ____
ROOT
ATOM      1  O   HOH     1       4.527  -5.172  21.359  0.00  0.00    +0.000 OA
ENDROOT
TORSDOF 0
REMARK  Name = ../refined-set-2016/1mtr/1mtr_pocket.pdb
REMARK  221 active torsions:
REMARK  status: ('A' for Active; 'I' for Inactive)
REMARK    1  A    between atoms: _1  and  _3
REMARK    2  A    between atoms: _3  and  _4
REMARK    3  A    between atoms: _3  and  _6
REMARK    4  A    between atoms: _6  and  _7
REMARK    5  A    between atoms: _7  and  _8
REMARK    6  A    between atoms: _8  and  _9
REMARK    7  A    between atoms: _18  and  _20
REMARK    8  A    between atoms: _20  and  _21
REMARK    9  A    between atoms: _20  and  _23
REMARK   10  A    between atoms: _23  and  _24
REMARK   11  A    between atoms: _27  and  _29
REMARK   12  A    between atoms: _29  and  _30
REMARK   13  A    between atoms: _29  and  _32
REMARK   14  A    between atoms: _32  and  _33
REMARK   15  A    between atoms: _36  and  _38
REMARK   16  A    between atoms: _38  and  _39
REMARK   17  A    between atoms: _38  and  _41
REMARK   18  A    between atoms: _41  and  _42
REMARK   19  A    between atoms: _45  and  _47
REMARK   20  A    between atoms: _47  and  _48
REMARK   21  A    between atoms: _47  and  _50
REMARK   22  A    between atoms: _50  and  _51
REMARK   23  A    between atoms: _54  and  _56
REMARK   24  A    between atoms: _56  and  _57
REMARK   25  A    between atoms: _59  and  _61
REMARK   26  A    between atoms: _61  and  _62
REMARK   27  A    between atoms: _65  and  _67
REMARK   28  A    between atoms: _67  and  _68
REMARK   29  A    between atoms: _67  and  _70
REMARK   30  A    between atoms: _70  and  _71
REMARK   31  A    between atoms: _74  and  _76
REMARK   32  A    between atoms: _76  and  _77
REMARK   33  A    between atoms: _76  and  _79
REMARK   34  A    between atoms: _79  and  _80
REMARK   35  A    between atoms: _83  and  _85
REMARK   36  A    between atoms: _85  and  _86
REMARK   37  A    between atoms: _85  and  _88
REMARK   38  A    between atoms: _88  and  _89
REMARK   39  A    between atoms: _92  and  _94
REMARK   40  A    between atoms: _94  and  _95
REMARK   41  A    between atoms: _94  and  _97
REMARK   42  A    between atoms: _100  and  _102
REMARK   43  A    between atoms: _102  and  _103
REMARK   44  A    between atoms: _102  and  _105
REMARK   45  A    between atoms: _105  and  _106
REMARK   46  A    between atoms: _106  and  _107
REMARK   47  A    between atoms: _109  and  _111
REMARK   48  A    between atoms: _111  and  _112
REMARK   49  A    between atoms: _111  and  _114
REMARK   50  A    between atoms: _114  and  _115
REMARK   51  A    between atoms: _118  and  _120
REMARK   52  A    between atoms: _120  and  _121
REMARK   53  A    between atoms: _123  and  _125
REMARK   54  A    between atoms: _125  and  _126
REMARK   55  A    between atoms: _128  and  _130
REMARK   56  A    between atoms: _130  and  _131
REMARK   57  A    between atoms: _130  and  _133
REMARK   58  A    between atoms: _133  and  _134
REMARK   59  A    between atoms: _137  and  _139
REMARK   60  A    between atoms: _139  and  _140
REMARK   61  A    between atoms: _142  and  _144
REMARK   62  A    between atoms: _144  and  _145
REMARK   63  A    between atoms: _147  and  _149
REMARK   64  A    between atoms: _149  and  _150
REMARK   65  A    between atoms: _149  and  _152
REMARK   66  A    between atoms: _152  and  _153
REMARK   67  A    between atoms: _159  and  _161
REMARK   68  A    between atoms: _161  and  _162
REMARK   69  A    between atoms: _161  and  _164
REMARK   70  A    between atoms: _164  and  _165
REMARK   71  A    between atoms: _168  and  _170
REMARK   72  A    between atoms: _170  and  _171
REMARK   73  A    between atoms: _170  and  _173
REMARK   74  A    between atoms: _176  and  _178
REMARK   75  A    between atoms: _178  and  _179
REMARK   76  A    between atoms: _178  and  _181
REMARK   77  A    between atoms: _181  and  _182
REMARK   78  A    between atoms: _185  and  _187
REMARK   79  A    between atoms: _187  and  _188
REMARK   80  A    between atoms: _187  and  _190
REMARK   81  A    between atoms: _190  and  _191
REMARK   82  A    between atoms: _195  and  _196
REMARK   83  A    between atoms: _201  and  _203
REMARK   84  A    between atoms: _203  and  _204
REMARK   85  A    between atoms: _203  and  _206
REMARK   86  A    between atoms: _209  and  _211
REMARK   87  A    between atoms: _211  and  _212
REMARK   88  A    between atoms: _211  and  _214
REMARK   89  A    between atoms: _214  and  _215
REMARK   90  A    between atoms: _220  and  _222
REMARK   91  A    between atoms: _222  and  _223
REMARK   92  A    between atoms: _222  and  _225
REMARK   93  A    between atoms: _225  and  _226
REMARK   94  A    between atoms: _229  and  _231
REMARK   95  A    between atoms: _231  and  _232
REMARK   96  A    between atoms: _231  and  _234
REMARK   97  A    between atoms: _234  and  _235
REMARK   98  A    between atoms: _238  and  _240
REMARK   99  A    between atoms: _240  and  _241
REMARK  100  A    between atoms: _243  and  _245
REMARK  101  A    between atoms: _245  and  _246
REMARK  102  A    between atoms: _245  and  _248
REMARK  103  A    between atoms: _248  and  _249
REMARK  104  A    between atoms: _249  and  _250
REMARK  105  A    between atoms: _250  and  _251
REMARK  106  A    between atoms: _260  and  _262
REMARK  107  A    between atoms: _262  and  _263
REMARK  108  A    between atoms: _262  and  _265
REMARK  109  A    between atoms: _265  and  _266
REMARK  110  A    between atoms: _271  and  _273
REMARK  111  A    between atoms: _273  and  _274
REMARK  112  A    between atoms: _273  and  _276
REMARK  113  A    between atoms: _276  and  _277
REMARK  114  A    between atoms: _277  and  _278
REMARK  115  A    between atoms: _278  and  _279
REMARK  116  A    between atoms: _288  and  _290
REMARK  117  A    between atoms: _290  and  _291
REMARK  118  A    between atoms: _290  and  _293
REMARK  119  A    between atoms: _293  and  _294
REMARK  120  A    between atoms: _297  and  _299
REMARK  121  A    between atoms: _299  and  _300
REMARK  122  A    between atoms: _299  and  _302
REMARK  123  A    between atoms: _302  and  _303
REMARK  124  A    between atoms: _306  and  _308
REMARK  125  A    between atoms: _308  and  _309
REMARK  126  A    between atoms: _308  and  _311
REMARK  127  A    between atoms: _311  and  _312
REMARK  128  A    between atoms: _315  and  _317
REMARK  129  A    between atoms: _317  and  _318
REMARK  130  A    between atoms: _317  and  _320
REMARK  131  A    between atoms: _320  and  _321
REMARK  132  A    between atoms: _324  and  _326
REMARK  133  A    between atoms: _326  and  _327
REMARK  134  A    between atoms: _329  and  _331
REMARK  135  A    between atoms: _331  and  _332
REMARK  136  A    between atoms: _335  and  _337
REMARK  137  A    between atoms: _337  and  _338
REMARK  138  A    between atoms: _337  and  _340
REMARK  139  A    between atoms: _340  and  _341
REMARK  140  A    between atoms: _344  and  _346
REMARK  141  A    between atoms: _346  and  _347
REMARK  142  A    between atoms: _346  and  _349
REMARK  143  A    between atoms: _349  and  _350
REMARK  144  A    between atoms: _353  and  _355
REMARK  145  A    between atoms: _355  and  _356
REMARK  146  A    between atoms: _355  and  _358
REMARK  147  A    between atoms: _358  and  _359
REMARK  148  A    between atoms: _362  and  _364
REMARK  149  A    between atoms: _364  and  _365
REMARK  150  A    between atoms: _364  and  _367
REMARK  151  A    between atoms: _370  and  _372
REMARK  152  A    between atoms: _372  and  _373
REMARK  153  A    between atoms: _372  and  _375
REMARK  154  A    between atoms: _375  and  _376
REMARK  155  A    between atoms: _376  and  _377
REMARK  156  A    between atoms: _377  and  _378
REMARK  157  A    between atoms: _378  and  _379
REMARK  158  A    between atoms: _383  and  _385
REMARK  159  A    between atoms: _385  and  _386
REMARK  160  A    between atoms: _385  and  _388
REMARK  161  A    between atoms: _388  and  _389
REMARK  162  A    between atoms: _389  and  _390
REMARK  163  A    between atoms: _392  and  _394
REMARK  164  A    between atoms: _394  and  _395
REMARK  165  A    between atoms: _394  and  _397
REMARK  166  A    between atoms: _397  and  _398
REMARK  167  A    between atoms: _401  and  _403
REMARK  168  A    between atoms: _403  and  _404
REMARK  169  A    between atoms: _406  and  _408
REMARK  170  A    between atoms: _408  and  _409
REMARK  171  A    between atoms: _411  and  _413
REMARK  172  A    between atoms: _413  and  _414
REMARK  173  A    between atoms: _413  and  _416
REMARK  174  A    between atoms: _416  and  _417
REMARK  175  A    between atoms: _420  and  _422
REMARK  176  A    between atoms: _422  and  _423
REMARK  177  A    between atoms: _425  and  _427
REMARK  178  A    between atoms: _427  and  _428
REMARK  179  A    between atoms: _430  and  _432
REMARK  180  A    between atoms: _432  and  _433
REMARK  181  A    between atoms: _432  and  _435
REMARK  182  A    between atoms: _435  and  _436
REMARK  183  A    between atoms: _442  and  _444
REMARK  184  A    between atoms: _444  and  _445
REMARK  185  A    between atoms: _444  and  _447
REMARK  186  A    between atoms: _447  and  _448
REMARK  187  A    between atoms: _451  and  _453
REMARK  188  A    between atoms: _453  and  _454
REMARK  189  A    between atoms: _453  and  _456
REMARK  190  A    between atoms: _459  and  _461
REMARK  191  A    between atoms: _461  and  _462
REMARK  192  A    between atoms: _461  and  _464
REMARK  193  A    between atoms: _464  and  _465
REMARK  194  A    between atoms: _468  and  _470
REMARK  195  A    between atoms: _470  and  _471
REMARK  196  A    between atoms: _470  and  _473
REMARK  197  A    between atoms: _473  and  _474
REMARK  198  A    between atoms: _478  and  _479
REMARK  199  A    between atoms: _484  and  _486
REMARK  200  A    between atoms: _486  and  _487
REMARK  201  A    between atoms: _486  and  _489
REMARK  202  A    between atoms: _492  and  _494
REMARK  203  A    between atoms: _494  and  _495
REMARK  204  A    between atoms: _494  and  _497
REMARK  205  A    between atoms: _497  and  _498
REMARK  206  A    between atoms: _503  and  _505
REMARK  207  A    between atoms: _505  and  _506
REMARK  208  A    between atoms: _505  and  _508
REMARK  209  A    between atoms: _508  and  _509
REMARK  210  A    between atoms: _512  and  _514
REMARK  211  A    between atoms: _514  and  _515
REMARK  212  A    between atoms: _514  and  _517
REMARK  213  A    between atoms: _517  and  _518
REMARK  214  A    between atoms: _521  and  _523
REMARK  215  A    between atoms: _523  and  _524
REMARK  216  A    between atoms: _526  and  _528
REMARK  217  A    between atoms: _528  and  _529
REMARK  218  A    between atoms: _528  and  _531
REMARK  219  A    between atoms: _531  and  _532
REMARK  220  A    between atoms: _532  and  _533
REMARK  221  A    between atoms: _533  and  _534
REMARK                            x       y       z     vdW  Elec       q    Type
REMARK                         _______ _______ _______ _____ _____    ______ ____
ROOT
ATOM      1  O   HOH     1       3.621   4.604  11.626  0.00  0.00    +0.000 OA
ENDROOT
TORSDOF 0
REMARK  Name = ../refined-set-2016/1mtr/1mtr_pocket.pdb
REMARK  221 active torsions:
REMARK  status: ('A' for Active; 'I' for Inactive)
REMARK    1  A    between atoms: _1  and  _3
REMARK    2  A    between atoms: _3  and  _4
REMARK    3  A    between atoms: _3  and  _6
REMARK    4  A    between atoms: _6  and  _7
REMARK    5  A    between atoms: _7  and  _8
REMARK    6  A    between atoms: _8  and  _9
REMARK    7  A    between atoms: _18  and  _20
REMARK    8  A    between atoms: _20  and  _21
REMARK    9  A    between atoms: _20  and  _23
REMARK   10  A    between atoms: _23  and  _24
REMARK   11  A    between atoms: _27  and  _29
REMARK   12  A    between atoms: _29  and  _30
REMARK   13  A    between atoms: _29  and  _32
REMARK   14  A    between atoms: _32  and  _33
REMARK   15  A    between atoms: _36  and  _38
REMARK   16  A    between atoms: _38  and  _39
REMARK   17  A    between atoms: _38  and  _41
REMARK   18  A    between atoms: _41  and  _42
REMARK   19  A    between atoms: _45  and  _47
REMARK   20  A    between atoms: _47  and  _48
REMARK   21  A    between atoms: _47  and  _50
REMARK   22  A    between atoms: _50  and  _51
REMARK   23  A    between atoms: _54  and  _56
REMARK   24  A    between atoms: _56  and  _57
REMARK   25  A    between atoms: _59  and  _61
REMARK   26  A    between atoms: _61  and  _62
REMARK   27  A    between atoms: _65  and  _67
REMARK   28  A    between atoms: _67  and  _68
REMARK   29  A    between atoms: _67  and  _70
REMARK   30  A    between atoms: _70  and  _71
REMARK   31  A    between atoms: _74  and  _76
REMARK   32  A    between atoms: _76  and  _77
REMARK   33  A    between atoms: _76  and  _79
REMARK   34  A    between atoms: _79  and  _80
REMARK   35  A    between atoms: _83  and  _85
REMARK   36  A    between atoms: _85  and  _86
REMARK   37  A    between atoms: _85  and  _88
REMARK   38  A    between atoms: _88  and  _89
REMARK   39  A    between atoms: _92  and  _94
REMARK   40  A    between atoms: _94  and  _95
REMARK   41  A    between atoms: _94  and  _97
REMARK   42  A    between atoms: _100  and  _102
REMARK   43  A    between atoms: _102  and  _103
REMARK   44  A    between atoms: _102  and  _105
REMARK   45  A    between atoms: _105  and  _106
REMARK   46  A    between atoms: _106  and  _107
REMARK   47  A    between atoms: _109  and  _111
REMARK   48  A    between atoms: _111  and  _112
REMARK   49  A    between atoms: _111  and  _114
REMARK   50  A    between atoms: _114  and  _115
REMARK   51  A    between atoms: _118  and  _120
REMARK   52  A    between atoms: _120  and  _121
REMARK   53  A    between atoms: _123  and  _125
REMARK   54  A    between atoms: _125  and  _126
REMARK   55  A    between atoms: _128  and  _130
REMARK   56  A    between atoms: _130  and  _131
REMARK   57  A    between atoms: _130  and  _133
REMARK   58  A    between atoms: _133  and  _134
REMARK   59  A    between atoms: _137  and  _139
REMARK   60  A    between atoms: _139  and  _140
REMARK   61  A    between atoms: _142  and  _144
REMARK   62  A    between atoms: _144  and  _145
REMARK   63  A    between atoms: _147  and  _149
REMARK   64  A    between atoms: _149  and  _150
REMARK   65  A    between atoms: _149  and  _152
REMARK   66  A    between atoms: _152  and  _153
REMARK   67  A    between atoms: _159  and  _161
REMARK   68  A    between atoms: _161  and  _162
REMARK   69  A    between atoms: _161  and  _164
REMARK   70  A    between atoms: _164  and  _165
REMARK   71  A    between atoms: _168  and  _170
REMARK   72  A    between atoms: _170  and  _171
REMARK   73  A    between atoms: _170  and  _173
REMARK   74  A    between atoms: _176  and  _178
REMARK   75  A    between atoms: _178  and  _179
REMARK   76  A    between atoms: _178  and  _181
REMARK   77  A    between atoms: _181  and  _182
REMARK   78  A    between atoms: _185  and  _187
REMARK   79  A    between atoms: _187  and  _188
REMARK   80  A    between atoms: _187  and  _190
REMARK   81  A    between atoms: _190  and  _191
REMARK   82  A    between atoms: _195  and  _196
REMARK   83  A    between atoms: _201  and  _203
REMARK   84  A    between atoms: _203  and  _204
REMARK   85  A    between atoms: _203  and  _206
REMARK   86  A    between atoms: _209  and  _211
REMARK   87  A    between atoms: _211  and  _212
REMARK   88  A    between atoms: _211  and  _214
REMARK   89  A    between atoms: _214  and  _215
REMARK   90  A    between atoms: _220  and  _222
REMARK   91  A    between atoms: _222  and  _223
REMARK   92  A    between atoms: _222  and  _225
REMARK   93  A    between atoms: _225  and  _226
REMARK   94  A    between atoms: _229  and  _231
REMARK   95  A    between atoms: _231  and  _232
REMARK   96  A    between atoms: _231  and  _234
REMARK   97  A    between atoms: _234  and  _235
REMARK   98  A    between atoms: _238  and  _240
REMARK   99  A    between atoms: _240  and  _241
REMARK  100  A    between atoms: _243  and  _245
REMARK  101  A    between atoms: _245  and  _246
REMARK  102  A    between atoms: _245  and  _248
REMARK  103  A    between atoms: _248  and  _249
REMARK  104  A    between atoms: _249  and  _250
REMARK  105  A    between atoms: _250  and  _251
REMARK  106  A    between atoms: _260  and  _262
REMARK  107  A    between atoms: _262  and  _263
REMARK  108  A    between atoms: _262  and  _265
REMARK  109  A    between atoms: _265  and  _266
REMARK  110  A    between atoms: _271  and  _273
REMARK  111  A    between atoms: _273  and  _274
REMARK  112  A    between atoms: _273  and  _276
REMARK  113  A    between atoms: _276  and  _277
REMARK  114  A    between atoms: _277  and  _278
REMARK  115  A    between atoms: _278  and  _279
REMARK  116  A    between atoms: _288  and  _290
REMARK  117  A    between atoms: _290  and  _291
REMARK  118  A    between atoms: _290  and  _293
REMARK  119  A    between atoms: _293  and  _294
REMARK  120  A    between atoms: _297  and  _299
REMARK  121  A    between atoms: _299  and  _300
REMARK  122  A    between atoms: _299  and  _302
REMARK  123  A    between atoms: _302  and  _303
REMARK  124  A    between atoms: _306  and  _308
REMARK  125  A    between atoms: _308  and  _309
REMARK  126  A    between atoms: _308  and  _311
REMARK  127  A    between atoms: _311  and  _312
REMARK  128  A    between atoms: _315  and  _317
REMARK  129  A    between atoms: _317  and  _318
REMARK  130  A    between atoms: _317  and  _320
REMARK  131  A    between atoms: _320  and  _321
REMARK  132  A    between atoms: _324  and  _326
REMARK  133  A    between atoms: _326  and  _327
REMARK  134  A    between atoms: _329  and  _331
REMARK  135  A    between atoms: _331  and  _332
REMARK  136  A    between atoms: _335  and  _337
REMARK  137  A    between atoms: _337  and  _338
REMARK  138  A    between atoms: _337  and  _340
REMARK  139  A    between atoms: _340  and  _341
REMARK  140  A    between atoms: _344  and  _346
REMARK  141  A    between atoms: _346  and  _347
REMARK  142  A    between atoms: _346  and  _349
REMARK  143  A    between atoms: _349  and  _350
REMARK  144  A    between atoms: _353  and  _355
REMARK  145  A    between atoms: _355  and  _356
REMARK  146  A    between atoms: _355  and  _358
REMARK  147  A    between atoms: _358  and  _359
REMARK  148  A    between atoms: _362  and  _364
REMARK  149  A    between atoms: _364  and  _365
REMARK  150  A    between atoms: _364  and  _367
REMARK  151  A    between atoms: _370  and  _372
REMARK  152  A    between atoms: _372  and  _373
REMARK  153  A    between atoms: _372  and  _375
REMARK  154  A    between atoms: _375  and  _376
REMARK  155  A    between atoms: _376  and  _377
REMARK  156  A    between atoms: _377  and  _378
REMARK  157  A    between atoms: _378  and  _379
REMARK  158  A    between atoms: _383  and  _385
REMARK  159  A    between atoms: _385  and  _386
REMARK  160  A    between atoms: _385  and  _388
REMARK  161  A    between atoms: _388  and  _389
REMARK  162  A    between atoms: _389  and  _390
REMARK  163  A    between atoms: _392  and  _394
REMARK  164  A    between atoms: _394  and  _395
REMARK  165  A    between atoms: _394  and  _397
REMARK  166  A    between atoms: _397  and  _398
REMARK  167  A    between atoms: _401  and  _403
REMARK  168  A    between atoms: _403  and  _404
REMARK  169  A    between atoms: _406  and  _408
REMARK  170  A    between atoms: _408  and  _409
REMARK  171  A    between atoms: _411  and  _413
REMARK  172  A    between atoms: _413  and  _414
REMARK  173  A    between atoms: _413  and  _416
REMARK  174  A    between atoms: _416  and  _417
REMARK  175  A    between atoms: _420  and  _422
REMARK  176  A    between atoms: _422  and  _423
REMARK  177  A    between atoms: _425  and  _427
REMARK  178  A    between atoms: _427  and  _428
REMARK  179  A    between atoms: _430  and  _432
REMARK  180  A    between atoms: _432  and  _433
REMARK  181  A    between atoms: _432  and  _435
REMARK  182  A    between atoms: _435  and  _436
REMARK  183  A    between atoms: _442  and  _444
REMARK  184  A    between atoms: _444  and  _445
REMARK  185  A    between atoms: _444  and  _447
REMARK  186  A    between atoms: _447  and  _448
REMARK  187  A    between atoms: _451  and  _453
REMARK  188  A    between atoms: _453  and  _454
REMARK  189  A    between atoms: _453  and  _456
REMARK  190  A    between atoms: _459  and  _461
REMARK  191  A    between atoms: _461  and  _462
REMARK  192  A    between atoms: _461  and  _464
REMARK  193  A    between atoms: _464  and  _465
REMARK  194  A    between atoms: _468  and  _470
REMARK  195  A    between atoms: _470  and  _471
REMARK  196  A    between atoms: _470  and  _473
REMARK  197  A    between atoms: _473  and  _474
REMARK  198  A    between atoms: _478  and  _479
REMARK  199  A    between atoms: _484  and  _486
REMARK  200  A    between atoms: _486  and  _487
REMARK  201  A    between atoms: _486  and  _489
REMARK  202  A    between atoms: _492  and  _494
REMARK  203  A    between atoms: _494  and  _495
REMARK  204  A    between atoms: _494  and  _497
REMARK  205  A    between atoms: _497  and  _498
REMARK  206  A    between atoms: _503  and  _505
REMARK  207  A    between atoms: _505  and  _506
REMARK  208  A    between atoms: _505  and  _508
REMARK  209  A    between atoms: _508  and  _509
REMARK  210  A    between atoms: _512  and  _514
REMARK  211  A    between atoms: _514  and  _515
REMARK  212  A    between atoms: _514  and  _517
REMARK  213  A    between atoms: _517  and  _518
REMARK  214  A    between atoms: _521  and  _523
REMARK  215  A    between atoms: _523  and  _524
REMARK  216  A    between atoms: _526  and  _528
REMARK  217  A    between atoms: _528  and  _529
REMARK  218  A    between atoms: _528  and  _531
REMARK  219  A    between atoms: _531  and  _532
REMARK  220  A    between atoms: _532  and  _533
REMARK  221  A    between atoms: _533  and  _534
REMARK                            x       y       z     vdW  Elec       q    Type
REMARK                         _______ _______ _______ _____ _____    ______ ____
ROOT
ATOM      1  O   HOH     1       5.238  -3.357  23.446  0.00  0.00    +0.000 OA
ENDROOT
TORSDOF 0
REMARK  Name = ../refined-set-2016/1mtr/1mtr_pocket.pdb
REMARK  221 active torsions:
REMARK  status: ('A' for Active; 'I' for Inactive)
REMARK    1  A    between atoms: _1  and  _3
REMARK    2  A    between atoms: _3  and  _4
REMARK    3  A    between atoms: _3  and  _6
REMARK    4  A    between atoms: _6  and  _7
REMARK    5  A    between atoms: _7  and  _8
REMARK    6  A    between atoms: _8  and  _9
REMARK    7  A    between atoms: _18  and  _20
REMARK    8  A    between atoms: _20  and  _21
REMARK    9  A    between atoms: _20  and  _23
REMARK   10  A    between atoms: _23  and  _24
REMARK   11  A    between atoms: _27  and  _29
REMARK   12  A    between atoms: _29  and  _30
REMARK   13  A    between atoms: _29  and  _32
REMARK   14  A    between atoms: _32  and  _33
REMARK   15  A    between atoms: _36  and  _38
REMARK   16  A    between atoms: _38  and  _39
REMARK   17  A    between atoms: _38  and  _41
REMARK   18  A    between atoms: _41  and  _42
REMARK   19  A    between atoms: _45  and  _47
REMARK   20  A    between atoms: _47  and  _48
REMARK   21  A    between atoms: _47  and  _50
REMARK   22  A    between atoms: _50  and  _51
REMARK   23  A    between atoms: _54  and  _56
REMARK   24  A    between atoms: _56  and  _57
REMARK   25  A    between atoms: _59  and  _61
REMARK   26  A    between atoms: _61  and  _62
REMARK   27  A    between atoms: _65  and  _67
REMARK   28  A    between atoms: _67  and  _68
REMARK   29  A    between atoms: _67  and  _70
REMARK   30  A    between atoms: _70  and  _71
REMARK   31  A    between atoms: _74  and  _76
REMARK   32  A    between atoms: _76  and  _77
REMARK   33  A    between atoms: _76  and  _79
REMARK   34  A    between atoms: _79  and  _80
REMARK   35  A    between atoms: _83  and  _85
REMARK   36  A    between atoms: _85  and  _86
REMARK   37  A    between atoms: _85  and  _88
REMARK   38  A    between atoms: _88  and  _89
REMARK   39  A    between atoms: _92  and  _94
REMARK   40  A    between atoms: _94  and  _95
REMARK   41  A    between atoms: _94  and  _97
REMARK   42  A    between atoms: _100  and  _102
REMARK   43  A    between atoms: _102  and  _103
REMARK   44  A    between atoms: _102  and  _105
REMARK   45  A    between atoms: _105  and  _106
REMARK   46  A    between atoms: _106  and  _107
REMARK   47  A    between atoms: _109  and  _111
REMARK   48  A    between atoms: _111  and  _112
REMARK   49  A    between atoms: _111  and  _114
REMARK   50  A    between atoms: _114  and  _115
REMARK   51  A    between atoms: _118  and  _120
REMARK   52  A    between atoms: _120  and  _121
REMARK   53  A    between atoms: _123  and  _125
REMARK   54  A    between atoms: _125  and  _126
REMARK   55  A    between atoms: _128  and  _130
REMARK   56  A    between atoms: _130  and  _131
REMARK   57  A    between atoms: _130  and  _133
REMARK   58  A    between atoms: _133  and  _134
REMARK   59  A    between atoms: _137  and  _139
REMARK   60  A    between atoms: _139  and  _140
REMARK   61  A    between atoms: _142  and  _144
REMARK   62  A    between atoms: _144  and  _145
REMARK   63  A    between atoms: _147  and  _149
REMARK   64  A    between atoms: _149  and  _150
REMARK   65  A    between atoms: _149  and  _152
REMARK   66  A    between atoms: _152  and  _153
REMARK   67  A    between atoms: _159  and  _161
REMARK   68  A    between atoms: _161  and  _162
REMARK   69  A    between atoms: _161  and  _164
REMARK   70  A    between atoms: _164  and  _165
REMARK   71  A    between atoms: _168  and  _170
REMARK   72  A    between atoms: _170  and  _171
REMARK   73  A    between atoms: _170  and  _173
REMARK   74  A    between atoms: _176  and  _178
REMARK   75  A    between atoms: _178  and  _179
REMARK   76  A    between atoms: _178  and  _181
REMARK   77  A    between atoms: _181  and  _182
REMARK   78  A    between atoms: _185  and  _187
REMARK   79  A    between atoms: _187  and  _188
REMARK   80  A    between atoms: _187  and  _190
REMARK   81  A    between atoms: _190  and  _191
REMARK   82  A    between atoms: _195  and  _196
REMARK   83  A    between atoms: _201  and  _203
REMARK   84  A    between atoms: _203  and  _204
REMARK   85  A    between atoms: _203  and  _206
REMARK   86  A    between atoms: _209  and  _211
REMARK   87  A    between atoms: _211  and  _212
REMARK   88  A    between atoms: _211  and  _214
REMARK   89  A    between atoms: _214  and  _215
REMARK   90  A    between atoms: _220  and  _222
REMARK   91  A    between atoms: _222  and  _223
REMARK   92  A    between atoms: _222  and  _225
REMARK   93  A    between atoms: _225  and  _226
REMARK   94  A    between atoms: _229  and  _231
REMARK   95  A    between atoms: _231  and  _232
REMARK   96  A    between atoms: _231  and  _234
REMARK   97  A    between atoms: _234  and  _235
REMARK   98  A    between atoms: _238  and  _240
REMARK   99  A    between atoms: _240  and  _241
REMARK  100  A    between atoms: _243  and  _245
REMARK  101  A    between atoms: _245  and  _246
REMARK  102  A    between atoms: _245  and  _248
REMARK  103  A    between atoms: _248  and  _249
REMARK  104  A    between atoms: _249  and  _250
REMARK  105  A    between atoms: _250  and  _251
REMARK  106  A    between atoms: _260  and  _262
REMARK  107  A    between atoms: _262  and  _263
REMARK  108  A    between atoms: _262  and  _265
REMARK  109  A    between atoms: _265  and  _266
REMARK  110  A    between atoms: _271  and  _273
REMARK  111  A    between atoms: _273  and  _274
REMARK  112  A    between atoms: _273  and  _276
REMARK  113  A    between atoms: _276  and  _277
REMARK  114  A    between atoms: _277  and  _278
REMARK  115  A    between atoms: _278  and  _279
REMARK  116  A    between atoms: _288  and  _290
REMARK  117  A    between atoms: _290  and  _291
REMARK  118  A    between atoms: _290  and  _293
REMARK  119  A    between atoms: _293  and  _294
REMARK  120  A    between atoms: _297  and  _299
REMARK  121  A    between atoms: _299  and  _300
REMARK  122  A    between atoms: _299  and  _302
REMARK  123  A    between atoms: _302  and  _303
REMARK  124  A    between atoms: _306  and  _308
REMARK  125  A    between atoms: _308  and  _309
REMARK  126  A    between atoms: _308  and  _311
REMARK  127  A    between atoms: _311  and  _312
REMARK  128  A    between atoms: _315  and  _317
REMARK  129  A    between atoms: _317  and  _318
REMARK  130  A    between atoms: _317  and  _320
REMARK  131  A    between atoms: _320  and  _321
REMARK  132  A    between atoms: _324  and  _326
REMARK  133  A    between atoms: _326  and  _327
REMARK  134  A    between atoms: _329  and  _331
REMARK  135  A    between atoms: _331  and  _332
REMARK  136  A    between atoms: _335  and  _337
REMARK  137  A    between atoms: _337  and  _338
REMARK  138  A    between atoms: _337  and  _340
REMARK  139  A    between atoms: _340  and  _341
REMARK  140  A    between atoms: _344  and  _346
REMARK  141  A    between atoms: _346  and  _347
REMARK  142  A    between atoms: _346  and  _349
REMARK  143  A    between atoms: _349  and  _350
REMARK  144  A    between atoms: _353  and  _355
REMARK  145  A    between atoms: _355  and  _356
REMARK  146  A    between atoms: _355  and  _358
REMARK  147  A    between atoms: _358  and  _359
REMARK  148  A    between atoms: _362  and  _364
REMARK  149  A    between atoms: _364  and  _365
REMARK  150  A    between atoms: _364  and  _367
REMARK  151  A    between atoms: _370  and  _372
REMARK  152  A    between atoms: _372  and  _373
REMARK  153  A    between atoms: _372  and  _375
REMARK  154  A    between atoms: _375  and  _376
REMARK  155  A    between atoms: _376  and  _377
REMARK  156  A    between atoms: _377  and  _378
REMARK  157  A    between atoms: _378  and  _379
REMARK  158  A    between atoms: _383  and  _385
REMARK  159  A    between atoms: _385  and  _386
REMARK  160  A    between atoms: _385  and  _388
REMARK  161  A    between atoms: _388  and  _389
REMARK  162  A    between atoms: _389  and  _390
REMARK  163  A    between atoms: _392  and  _394
REMARK  164  A    between atoms: _394  and  _395
REMARK  165  A    between atoms: _394  and  _397
REMARK  166  A    between atoms: _397  and  _398
REMARK  167  A    between atoms: _401  and  _403
REMARK  168  A    between atoms: _403  and  _404
REMARK  169  A    between atoms: _406  and  _408
REMARK  170  A    between atoms: _408  and  _409
REMARK  171  A    between atoms: _411  and  _413
REMARK  172  A    between atoms: _413  and  _414
REMARK  173  A    between atoms: _413  and  _416
REMARK  174  A    between atoms: _416  and  _417
REMARK  175  A    between atoms: _420  and  _422
REMARK  176  A    between atoms: _422  and  _423
REMARK  177  A    between atoms: _425  and  _427
REMARK  178  A    between atoms: _427  and  _428
REMARK  179  A    between atoms: _430  and  _432
REMARK  180  A    between atoms: _432  and  _433
REMARK  181  A    between atoms: _432  and  _435
REMARK  182  A    between atoms: _435  and  _436
REMARK  183  A    between atoms: _442  and  _444
REMARK  184  A    between atoms: _444  and  _445
REMARK  185  A    between atoms: _444  and  _447
REMARK  186  A    between atoms: _447  and  _448
REMARK  187  A    between atoms: _451  and  _453
REMARK  188  A    between atoms: _453  and  _454
REMARK  189  A    between atoms: _453  and  _456
REMARK  190  A    between atoms: _459  and  _461
REMARK  191  A    between atoms: _461  and  _462
REMARK  192  A    between atoms: _461  and  _464
REMARK  193  A    between atoms: _464  and  _465
REMARK  194  A    between atoms: _468  and  _470
REMARK  195  A    between atoms: _470  and  _471
REMARK  196  A    between atoms: _470  and  _473
REMARK  197  A    between atoms: _473  and  _474
REMARK  198  A    between atoms: _478  and  _479
REMARK  199  A    between atoms: _484  and  _486
REMARK  200  A    between atoms: _486  and  _487
REMARK  201  A    between atoms: _486  and  _489
REMARK  202  A    between atoms: _492  and  _494
REMARK  203  A    between atoms: _494  and  _495
REMARK  204  A    between atoms: _494  and  _497
REMARK  205  A    between atoms: _497  and  _498
REMARK  206  A    between atoms: _503  and  _505
REMARK  207  A    between atoms: _505  and  _506
REMARK  208  A    between atoms: _505  and  _508
REMARK  209  A    between atoms: _508  and  _509
REMARK  210  A    between atoms: _512  and  _514
REMARK  211  A    between atoms: _514  and  _515
REMARK  212  A    between atoms: _514  and  _517
REMARK  213  A    between atoms: _517  and  _518
REMARK  214  A    between atoms: _521  and  _523
REMARK  215  A    between atoms: _523  and  _524
REMARK  216  A    between atoms: _526  and  _528
REMARK  217  A    between atoms: _528  and  _529
REMARK  218  A    between atoms: _528  and  _531
REMARK  219  A    between atoms: _531  and  _532
REMARK  220  A    between atoms: _532  and  _533
REMARK  221  A    between atoms: _533  and  _534
REMARK                            x       y       z     vdW  Elec       q    Type
REMARK                         _______ _______ _______ _____ _____    ______ ____
ROOT
ATOM      1  O   HOH     1      10.670   8.802  10.925  0.00  0.00    +0.000 OA
ENDROOT
TORSDOF 0
REMARK  Name = ../refined-set-2016/1mtr/1mtr_pocket.pdb
REMARK  221 active torsions:
REMARK  status: ('A' for Active; 'I' for Inactive)
REMARK    1  A    between atoms: _1  and  _3
REMARK    2  A    between atoms: _3  and  _4
REMARK    3  A    between atoms: _3  and  _6
REMARK    4  A    between atoms: _6  and  _7
REMARK    5  A    between atoms: _7  and  _8
REMARK    6  A    between atoms: _8  and  _9
REMARK    7  A    between atoms: _18  and  _20
REMARK    8  A    between atoms: _20  and  _21
REMARK    9  A    between atoms: _20  and  _23
REMARK   10  A    between atoms: _23  and  _24
REMARK   11  A    between atoms: _27  and  _29
REMARK   12  A    between atoms: _29  and  _30
REMARK   13  A    between atoms: _29  and  _32
REMARK   14  A    between atoms: _32  and  _33
REMARK   15  A    between atoms: _36  and  _38
REMARK   16  A    between atoms: _38  and  _39
REMARK   17  A    between atoms: _38  and  _41
REMARK   18  A    between atoms: _41  and  _42
REMARK   19  A    between atoms: _45  and  _47
REMARK   20  A    between atoms: _47  and  _48
REMARK   21  A    between atoms: _47  and  _50
REMARK   22  A    between atoms: _50  and  _51
REMARK   23  A    between atoms: _54  and  _56
REMARK   24  A    between atoms: _56  and  _57
REMARK   25  A    between atoms: _59  and  _61
REMARK   26  A    between atoms: _61  and  _62
REMARK   27  A    between atoms: _65  and  _67
REMARK   28  A    between atoms: _67  and  _68
REMARK   29  A    between atoms: _67  and  _70
REMARK   30  A    between atoms: _70  and  _71
REMARK   31  A    between atoms: _74  and  _76
REMARK   32  A    between atoms: _76  and  _77
REMARK   33  A    between atoms: _76  and  _79
REMARK   34  A    between atoms: _79  and  _80
REMARK   35  A    between atoms: _83  and  _85
REMARK   36  A    between atoms: _85  and  _86
REMARK   37  A    between atoms: _85  and  _88
REMARK   38  A    between atoms: _88  and  _89
REMARK   39  A    between atoms: _92  and  _94
REMARK   40  A    between atoms: _94  and  _95
REMARK   41  A    between atoms: _94  and  _97
REMARK   42  A    between atoms: _100  and  _102
REMARK   43  A    between atoms: _102  and  _103
REMARK   44  A    between atoms: _102  and  _105
REMARK   45  A    between atoms: _105  and  _106
REMARK   46  A    between atoms: _106  and  _107
REMARK   47  A    between atoms: _109  and  _111
REMARK   48  A    between atoms: _111  and  _112
REMARK   49  A    between atoms: _111  and  _114
REMARK   50  A    between atoms: _114  and  _115
REMARK   51  A    between atoms: _118  and  _120
REMARK   52  A    between atoms: _120  and  _121
REMARK   53  A    between atoms: _123  and  _125
REMARK   54  A    between atoms: _125  and  _126
REMARK   55  A    between atoms: _128  and  _130
REMARK   56  A    between atoms: _130  and  _131
REMARK   57  A    between atoms: _130  and  _133
REMARK   58  A    between atoms: _133  and  _134
REMARK   59  A    between atoms: _137  and  _139
REMARK   60  A    between atoms: _139  and  _140
REMARK   61  A    between atoms: _142  and  _144
REMARK   62  A    between atoms: _144  and  _145
REMARK   63  A    between atoms: _147  and  _149
REMARK   64  A    between atoms: _149  and  _150
REMARK   65  A    between atoms: _149  and  _152
REMARK   66  A    between atoms: _152  and  _153
REMARK   67  A    between atoms: _159  and  _161
REMARK   68  A    between atoms: _161  and  _162
REMARK   69  A    between atoms: _161  and  _164
REMARK   70  A    between atoms: _164  and  _165
REMARK   71  A    between atoms: _168  and  _170
REMARK   72  A    between atoms: _170  and  _171
REMARK   73  A    between atoms: _170  and  _173
REMARK   74  A    between atoms: _176  and  _178
REMARK   75  A    between atoms: _178  and  _179
REMARK   76  A    between atoms: _178  and  _181
REMARK   77  A    between atoms: _181  and  _182
REMARK   78  A    between atoms: _185  and  _187
REMARK   79  A    between atoms: _187  and  _188
REMARK   80  A    between atoms: _187  and  _190
REMARK   81  A    between atoms: _190  and  _191
REMARK   82  A    between atoms: _195  and  _196
REMARK   83  A    between atoms: _201  and  _203
REMARK   84  A    between atoms: _203  and  _204
REMARK   85  A    between atoms: _203  and  _206
REMARK   86  A    between atoms: _209  and  _211
REMARK   87  A    between atoms: _211  and  _212
REMARK   88  A    between atoms: _211  and  _214
REMARK   89  A    between atoms: _214  and  _215
REMARK   90  A    between atoms: _220  and  _222
REMARK   91  A    between atoms: _222  and  _223
REMARK   92  A    between atoms: _222  and  _225
REMARK   93  A    between atoms: _225  and  _226
REMARK   94  A    between atoms: _229  and  _231
REMARK   95  A    between atoms: _231  and  _232
REMARK   96  A    between atoms: _231  and  _234
REMARK   97  A    between atoms: _234  and  _235
REMARK   98  A    between atoms: _238  and  _240
REMARK   99  A    between atoms: _240  and  _241
REMARK  100  A    between atoms: _243  and  _245
REMARK  101  A    between atoms: _245  and  _246
REMARK  102  A    between atoms: _245  and  _248
REMARK  103  A    between atoms: _248  and  _249
REMARK  104  A    between atoms: _249  and  _250
REMARK  105  A    between atoms: _250  and  _251
REMARK  106  A    between atoms: _260  and  _262
REMARK  107  A    between atoms: _262  and  _263
REMARK  108  A    between atoms: _262  and  _265
REMARK  109  A    between atoms: _265  and  _266
REMARK  110  A    between atoms: _271  and  _273
REMARK  111  A    between atoms: _273  and  _274
REMARK  112  A    between atoms: _273  and  _276
REMARK  113  A    between atoms: _276  and  _277
REMARK  114  A    between atoms: _277  and  _278
REMARK  115  A    between atoms: _278  and  _279
REMARK  116  A    between atoms: _288  and  _290
REMARK  117  A    between atoms: _290  and  _291
REMARK  118  A    between atoms: _290  and  _293
REMARK  119  A    between atoms: _293  and  _294
REMARK  120  A    between atoms: _297  and  _299
REMARK  121  A    between atoms: _299  and  _300
REMARK  122  A    between atoms: _299  and  _302
REMARK  123  A    between atoms: _302  and  _303
REMARK  124  A    between atoms: _306  and  _308
REMARK  125  A    between atoms: _308  and  _309
REMARK  126  A    between atoms: _308  and  _311
REMARK  127  A    between atoms: _311  and  _312
REMARK  128  A    between atoms: _315  and  _317
REMARK  129  A    between atoms: _317  and  _318
REMARK  130  A    between atoms: _317  and  _320
REMARK  131  A    between atoms: _320  and  _321
REMARK  132  A    between atoms: _324  and  _326
REMARK  133  A    between atoms: _326  and  _327
REMARK  134  A    between atoms: _329  and  _331
REMARK  135  A    between atoms: _331  and  _332
REMARK  136  A    between atoms: _335  and  _337
REMARK  137  A    between atoms: _337  and  _338
REMARK  138  A    between atoms: _337  and  _340
REMARK  139  A    between atoms: _340  and  _341
REMARK  140  A    between atoms: _344  and  _346
REMARK  141  A    between atoms: _346  and  _347
REMARK  142  A    between atoms: _346  and  _349
REMARK  143  A    between atoms: _349  and  _350
REMARK  144  A    between atoms: _353  and  _355
REMARK  145  A    between atoms: _355  and  _356
REMARK  146  A    between atoms: _355  and  _358
REMARK  147  A    between atoms: _358  and  _359
REMARK  148  A    between atoms: _362  and  _364
REMARK  149  A    between atoms: _364  and  _365
REMARK  150  A    between atoms: _364  and  _367
REMARK  151  A    between atoms: _370  and  _372
REMARK  152  A    between atoms: _372  and  _373
REMARK  153  A    between atoms: _372  and  _375
REMARK  154  A    between atoms: _375  and  _376
REMARK  155  A    between atoms: _376  and  _377
REMARK  156  A    between atoms: _377  and  _378
REMARK  157  A    between atoms: _378  and  _379
REMARK  158  A    between atoms: _383  and  _385
REMARK  159  A    between atoms: _385  and  _386
REMARK  160  A    between atoms: _385  and  _388
REMARK  161  A    between atoms: _388  and  _389
REMARK  162  A    between atoms: _389  and  _390
REMARK  163  A    between atoms: _392  and  _394
REMARK  164  A    between atoms: _394  and  _395
REMARK  165  A    between atoms: _394  and  _397
REMARK  166  A    between atoms: _397  and  _398
REMARK  167  A    between atoms: _401  and  _403
REMARK  168  A    between atoms: _403  and  _404
REMARK  169  A    between atoms: _406  and  _408
REMARK  170  A    between atoms: _408  and  _409
REMARK  171  A    between atoms: _411  and  _413
REMARK  172  A    between atoms: _413  and  _414
REMARK  173  A    between atoms: _413  and  _416
REMARK  174  A    between atoms: _416  and  _417
REMARK  175  A    between atoms: _420  and  _422
REMARK  176  A    between atoms: _422  and  _423
REMARK  177  A    between atoms: _425  and  _427
REMARK  178  A    between atoms: _427  and  _428
REMARK  179  A    between atoms: _430  and  _432
REMARK  180  A    between atoms: _432  and  _433
REMARK  181  A    between atoms: _432  and  _435
REMARK  182  A    between atoms: _435  and  _436
REMARK  183  A    between atoms: _442  and  _444
REMARK  184  A    between atoms: _444  and  _445
REMARK  185  A    between atoms: _444  and  _447
REMARK  186  A    between atoms: _447  and  _448
REMARK  187  A    between atoms: _451  and  _453
REMARK  188  A    between atoms: _453  and  _454
REMARK  189  A    between atoms: _453  and  _456
REMARK  190  A    between atoms: _459  and  _461
REMARK  191  A    between atoms: _461  and  _462
REMARK  192  A    between atoms: _461  and  _464
REMARK  193  A    between atoms: _464  and  _465
REMARK  194  A    between atoms: _468  and  _470
REMARK  195  A    between atoms: _470  and  _471
REMARK  196  A    between atoms: _470  and  _473
REMARK  197  A    between atoms: _473  and  _474
REMARK  198  A    between atoms: _478  and  _479
REMARK  199  A    between atoms: _484  and  _486
REMARK  200  A    between atoms: _486  and  _487
REMARK  201  A    between atoms: _486  and  _489
REMARK  202  A    between atoms: _492  and  _494
REMARK  203  A    between atoms: _494  and  _495
REMARK  204  A    between atoms: _494  and  _497
REMARK  205  A    between atoms: _497  and  _498
REMARK  206  A    between atoms: _503  and  _505
REMARK  207  A    between atoms: _505  and  _506
REMARK  208  A    between atoms: _505  and  _508
REMARK  209  A    between atoms: _508  and  _509
REMARK  210  A    between atoms: _512  and  _514
REMARK  211  A    between atoms: _514  and  _515
REMARK  212  A    between atoms: _514  and  _517
REMARK  213  A    between atoms: _517  and  _518
REMARK  214  A    between atoms: _521  and  _523
REMARK  215  A    between atoms: _523  and  _524
REMARK  216  A    between atoms: _526  and  _528
REMARK  217  A    between atoms: _528  and  _529
REMARK  218  A    between atoms: _528  and  _531
REMARK  219  A    between atoms: _531  and  _532
REMARK  220  A    between atoms: _532  and  _533
REMARK  221  A    between atoms: _533  and  _534
REMARK                            x       y       z     vdW  Elec       q    Type
REMARK                         _______ _______ _______ _____ _____    ______ ____
ROOT
ATOM      1  O   HOH     1       8.496 -10.646  16.635  0.00  0.00    +0.000 OA
ENDROOT
TORSDOF 0
REMARK  Name = ../refined-set-2016/1mtr/1mtr_pocket.pdb
REMARK  221 active torsions:
REMARK  status: ('A' for Active; 'I' for Inactive)
REMARK    1  A    between atoms: _1  and  _3
REMARK    2  A    between atoms: _3  and  _4
REMARK    3  A    between atoms: _3  and  _6
REMARK    4  A    between atoms: _6  and  _7
REMARK    5  A    between atoms: _7  and  _8
REMARK    6  A    between atoms: _8  and  _9
REMARK    7  A    between atoms: _18  and  _20
REMARK    8  A    between atoms: _20  and  _21
REMARK    9  A    between atoms: _20  and  _23
REMARK   10  A    between atoms: _23  and  _24
REMARK   11  A    between atoms: _27  and  _29
REMARK   12  A    between atoms: _29  and  _30
REMARK   13  A    between atoms: _29  and  _32
REMARK   14  A    between atoms: _32  and  _33
REMARK   15  A    between atoms: _36  and  _38
REMARK   16  A    between atoms: _38  and  _39
REMARK   17  A    between atoms: _38  and  _41
REMARK   18  A    between atoms: _41  and  _42
REMARK   19  A    between atoms: _45  and  _47
REMARK   20  A    between atoms: _47  and  _48
REMARK   21  A    between atoms: _47  and  _50
REMARK   22  A    between atoms: _50  and  _51
REMARK   23  A    between atoms: _54  and  _56
REMARK   24  A    between atoms: _56  and  _57
REMARK   25  A    between atoms: _59  and  _61
REMARK   26  A    between atoms: _61  and  _62
REMARK   27  A    between atoms: _65  and  _67
REMARK   28  A    between atoms: _67  and  _68
REMARK   29  A    between atoms: _67  and  _70
REMARK   30  A    between atoms: _70  and  _71
REMARK   31  A    between atoms: _74  and  _76
REMARK   32  A    between atoms: _76  and  _77
REMARK   33  A    between atoms: _76  and  _79
REMARK   34  A    between atoms: _79  and  _80
REMARK   35  A    between atoms: _83  and  _85
REMARK   36  A    between atoms: _85  and  _86
REMARK   37  A    between atoms: _85  and  _88
REMARK   38  A    between atoms: _88  and  _89
REMARK   39  A    between atoms: _92  and  _94
REMARK   40  A    between atoms: _94  and  _95
REMARK   41  A    between atoms: _94  and  _97
REMARK   42  A    between atoms: _100  and  _102
REMARK   43  A    between atoms: _102  and  _103
REMARK   44  A    between atoms: _102  and  _105
REMARK   45  A    between atoms: _105  and  _106
REMARK   46  A    between atoms: _106  and  _107
REMARK   47  A    between atoms: _109  and  _111
REMARK   48  A    between atoms: _111  and  _112
REMARK   49  A    between atoms: _111  and  _114
REMARK   50  A    between atoms: _114  and  _115
REMARK   51  A    between atoms: _118  and  _120
REMARK   52  A    between atoms: _120  and  _121
REMARK   53  A    between atoms: _123  and  _125
REMARK   54  A    between atoms: _125  and  _126
REMARK   55  A    between atoms: _128  and  _130
REMARK   56  A    between atoms: _130  and  _131
REMARK   57  A    between atoms: _130  and  _133
REMARK   58  A    between atoms: _133  and  _134
REMARK   59  A    between atoms: _137  and  _139
REMARK   60  A    between atoms: _139  and  _140
REMARK   61  A    between atoms: _142  and  _144
REMARK   62  A    between atoms: _144  and  _145
REMARK   63  A    between atoms: _147  and  _149
REMARK   64  A    between atoms: _149  and  _150
REMARK   65  A    between atoms: _149  and  _152
REMARK   66  A    between atoms: _152  and  _153
REMARK   67  A    between atoms: _159  and  _161
REMARK   68  A    between atoms: _161  and  _162
REMARK   69  A    between atoms: _161  and  _164
REMARK   70  A    between atoms: _164  and  _165
REMARK   71  A    between atoms: _168  and  _170
REMARK   72  A    between atoms: _170  and  _171
REMARK   73  A    between atoms: _170  and  _173
REMARK   74  A    between atoms: _176  and  _178
REMARK   75  A    between atoms: _178  and  _179
REMARK   76  A    between atoms: _178  and  _181
REMARK   77  A    between atoms: _181  and  _182
REMARK   78  A    between atoms: _185  and  _187
REMARK   79  A    between atoms: _187  and  _188
REMARK   80  A    between atoms: _187  and  _190
REMARK   81  A    between atoms: _190  and  _191
REMARK   82  A    between atoms: _195  and  _196
REMARK   83  A    between atoms: _201  and  _203
REMARK   84  A    between atoms: _203  and  _204
REMARK   85  A    between atoms: _203  and  _206
REMARK   86  A    between atoms: _209  and  _211
REMARK   87  A    between atoms: _211  and  _212
REMARK   88  A    between atoms: _211  and  _214
REMARK   89  A    between atoms: _214  and  _215
REMARK   90  A    between atoms: _220  and  _222
REMARK   91  A    between atoms: _222  and  _223
REMARK   92  A    between atoms: _222  and  _225
REMARK   93  A    between atoms: _225  and  _226
REMARK   94  A    between atoms: _229  and  _231
REMARK   95  A    between atoms: _231  and  _232
REMARK   96  A    between atoms: _231  and  _234
REMARK   97  A    between atoms: _234  and  _235
REMARK   98  A    between atoms: _238  and  _240
REMARK   99  A    between atoms: _240  and  _241
REMARK  100  A    between atoms: _243  and  _245
REMARK  101  A    between atoms: _245  and  _246
REMARK  102  A    between atoms: _245  and  _248
REMARK  103  A    between atoms: _248  and  _249
REMARK  104  A    between atoms: _249  and  _250
REMARK  105  A    between atoms: _250  and  _251
REMARK  106  A    between atoms: _260  and  _262
REMARK  107  A    between atoms: _262  and  _263
REMARK  108  A    between atoms: _262  and  _265
REMARK  109  A    between atoms: _265  and  _266
REMARK  110  A    between atoms: _271  and  _273
REMARK  111  A    between atoms: _273  and  _274
REMARK  112  A    between atoms: _273  and  _276
REMARK  113  A    between atoms: _276  and  _277
REMARK  114  A    between atoms: _277  and  _278
REMARK  115  A    between atoms: _278  and  _279
REMARK  116  A    between atoms: _288  and  _290
REMARK  117  A    between atoms: _290  and  _291
REMARK  118  A    between atoms: _290  and  _293
REMARK  119  A    between atoms: _293  and  _294
REMARK  120  A    between atoms: _297  and  _299
REMARK  121  A    between atoms: _299  and  _300
REMARK  122  A    between atoms: _299  and  _302
REMARK  123  A    between atoms: _302  and  _303
REMARK  124  A    between atoms: _306  and  _308
REMARK  125  A    between atoms: _308  and  _309
REMARK  126  A    between atoms: _308  and  _311
REMARK  127  A    between atoms: _311  and  _312
REMARK  128  A    between atoms: _315  and  _317
REMARK  129  A    between atoms: _317  and  _318
REMARK  130  A    between atoms: _317  and  _320
REMARK  131  A    between atoms: _320  and  _321
REMARK  132  A    between atoms: _324  and  _326
REMARK  133  A    between atoms: _326  and  _327
REMARK  134  A    between atoms: _329  and  _331
REMARK  135  A    between atoms: _331  and  _332
REMARK  136  A    between atoms: _335  and  _337
REMARK  137  A    between atoms: _337  and  _338
REMARK  138  A    between atoms: _337  and  _340
REMARK  139  A    between atoms: _340  and  _341
REMARK  140  A    between atoms: _344  and  _346
REMARK  141  A    between atoms: _346  and  _347
REMARK  142  A    between atoms: _346  and  _349
REMARK  143  A    between atoms: _349  and  _350
REMARK  144  A    between atoms: _353  and  _355
REMARK  145  A    between atoms: _355  and  _356
REMARK  146  A    between atoms: _355  and  _358
REMARK  147  A    between atoms: _358  and  _359
REMARK  148  A    between atoms: _362  and  _364
REMARK  149  A    between atoms: _364  and  _365
REMARK  150  A    between atoms: _364  and  _367
REMARK  151  A    between atoms: _370  and  _372
REMARK  152  A    between atoms: _372  and  _373
REMARK  153  A    between atoms: _372  and  _375
REMARK  154  A    between atoms: _375  and  _376
REMARK  155  A    between atoms: _376  and  _377
REMARK  156  A    between atoms: _377  and  _378
REMARK  157  A    between atoms: _378  and  _379
REMARK  158  A    between atoms: _383  and  _385
REMARK  159  A    between atoms: _385  and  _386
REMARK  160  A    between atoms: _385  and  _388
REMARK  161  A    between atoms: _388  and  _389
REMARK  162  A    between atoms: _389  and  _390
REMARK  163  A    between atoms: _392  and  _394
REMARK  164  A    between atoms: _394  and  _395
REMARK  165  A    between atoms: _394  and  _397
REMARK  166  A    between atoms: _397  and  _398
REMARK  167  A    between atoms: _401  and  _403
REMARK  168  A    between atoms: _403  and  _404
REMARK  169  A    between atoms: _406  and  _408
REMARK  170  A    between atoms: _408  and  _409
REMARK  171  A    between atoms: _411  and  _413
REMARK  172  A    between atoms: _413  and  _414
REMARK  173  A    between atoms: _413  and  _416
REMARK  174  A    between atoms: _416  and  _417
REMARK  175  A    between atoms: _420  and  _422
REMARK  176  A    between atoms: _422  and  _423
REMARK  177  A    between atoms: _425  and  _427
REMARK  178  A    between atoms: _427  and  _428
REMARK  179  A    between atoms: _430  and  _432
REMARK  180  A    between atoms: _432  and  _433
REMARK  181  A    between atoms: _432  and  _435
REMARK  182  A    between atoms: _435  and  _436
REMARK  183  A    between atoms: _442  and  _444
REMARK  184  A    between atoms: _444  and  _445
REMARK  185  A    between atoms: _444  and  _447
REMARK  186  A    between atoms: _447  and  _448
REMARK  187  A    between atoms: _451  and  _453
REMARK  188  A    between atoms: _453  and  _454
REMARK  189  A    between atoms: _453  and  _456
REMARK  190  A    between atoms: _459  and  _461
REMARK  191  A    between atoms: _461  and  _462
REMARK  192  A    between atoms: _461  and  _464
REMARK  193  A    between atoms: _464  and  _465
REMARK  194  A    between atoms: _468  and  _470
REMARK  195  A    between atoms: _470  and  _471
REMARK  196  A    between atoms: _470  and  _473
REMARK  197  A    between atoms: _473  and  _474
REMARK  198  A    between atoms: _478  and  _479
REMARK  199  A    between atoms: _484  and  _486
REMARK  200  A    between atoms: _486  and  _487
REMARK  201  A    between atoms: _486  and  _489
REMARK  202  A    between atoms: _492  and  _494
REMARK  203  A    between atoms: _494  and  _495
REMARK  204  A    between atoms: _494  and  _497
REMARK  205  A    between atoms: _497  and  _498
REMARK  206  A    between atoms: _503  and  _505
REMARK  207  A    between atoms: _505  and  _506
REMARK  208  A    between atoms: _505  and  _508
REMARK  209  A    between atoms: _508  and  _509
REMARK  210  A    between atoms: _512  and  _514
REMARK  211  A    between atoms: _514  and  _515
REMARK  212  A    between atoms: _514  and  _517
REMARK  213  A    between atoms: _517  and  _518
REMARK  214  A    between atoms: _521  and  _523
REMARK  215  A    between atoms: _523  and  _524
REMARK  216  A    between atoms: _526  and  _528
REMARK  217  A    between atoms: _528  and  _529
REMARK  218  A    between atoms: _528  and  _531
REMARK  219  A    between atoms: _531  and  _532
REMARK  220  A    between atoms: _532  and  _533
REMARK  221  A    between atoms: _533  and  _534
REMARK                            x       y       z     vdW  Elec       q    Type
REMARK                         _______ _______ _______ _____ _____    ______ ____
ROOT
ATOM      1  O   HOH     1      10.331 -12.513  18.050  0.00  0.00    +0.000 OA
ENDROOT
TORSDOF 0
REMARK  Name = ../refined-set-2016/1mtr/1mtr_pocket.pdb
REMARK  221 active torsions:
REMARK  status: ('A' for Active; 'I' for Inactive)
REMARK    1  A    between atoms: _1  and  _3
REMARK    2  A    between atoms: _3  and  _4
REMARK    3  A    between atoms: _3  and  _6
REMARK    4  A    between atoms: _6  and  _7
REMARK    5  A    between atoms: _7  and  _8
REMARK    6  A    between atoms: _8  and  _9
REMARK    7  A    between atoms: _18  and  _20
REMARK    8  A    between atoms: _20  and  _21
REMARK    9  A    between atoms: _20  and  _23
REMARK   10  A    between atoms: _23  and  _24
REMARK   11  A    between atoms: _27  and  _29
REMARK   12  A    between atoms: _29  and  _30
REMARK   13  A    between atoms: _29  and  _32
REMARK   14  A    between atoms: _32  and  _33
REMARK   15  A    between atoms: _36  and  _38
REMARK   16  A    between atoms: _38  and  _39
REMARK   17  A    between atoms: _38  and  _41
REMARK   18  A    between atoms: _41  and  _42
REMARK   19  A    between atoms: _45  and  _47
REMARK   20  A    between atoms: _47  and  _48
REMARK   21  A    between atoms: _47  and  _50
REMARK   22  A    between atoms: _50  and  _51
REMARK   23  A    between atoms: _54  and  _56
REMARK   24  A    between atoms: _56  and  _57
REMARK   25  A    between atoms: _59  and  _61
REMARK   26  A    between atoms: _61  and  _62
REMARK   27  A    between atoms: _65  and  _67
REMARK   28  A    between atoms: _67  and  _68
REMARK   29  A    between atoms: _67  and  _70
REMARK   30  A    between atoms: _70  and  _71
REMARK   31  A    between atoms: _74  and  _76
REMARK   32  A    between atoms: _76  and  _77
REMARK   33  A    between atoms: _76  and  _79
REMARK   34  A    between atoms: _79  and  _80
REMARK   35  A    between atoms: _83  and  _85
REMARK   36  A    between atoms: _85  and  _86
REMARK   37  A    between atoms: _85  and  _88
REMARK   38  A    between atoms: _88  and  _89
REMARK   39  A    between atoms: _92  and  _94
REMARK   40  A    between atoms: _94  and  _95
REMARK   41  A    between atoms: _94  and  _97
REMARK   42  A    between atoms: _100  and  _102
REMARK   43  A    between atoms: _102  and  _103
REMARK   44  A    between atoms: _102  and  _105
REMARK   45  A    between atoms: _105  and  _106
REMARK   46  A    between atoms: _106  and  _107
REMARK   47  A    between atoms: _109  and  _111
REMARK   48  A    between atoms: _111  and  _112
REMARK   49  A    between atoms: _111  and  _114
REMARK   50  A    between atoms: _114  and  _115
REMARK   51  A    between atoms: _118  and  _120
REMARK   52  A    between atoms: _120  and  _121
REMARK   53  A    between atoms: _123  and  _125
REMARK   54  A    between atoms: _125  and  _126
REMARK   55  A    between atoms: _128  and  _130
REMARK   56  A    between atoms: _130  and  _131
REMARK   57  A    between atoms: _130  and  _133
REMARK   58  A    between atoms: _133  and  _134
REMARK   59  A    between atoms: _137  and  _139
REMARK   60  A    between atoms: _139  and  _140
REMARK   61  A    between atoms: _142  and  _144
REMARK   62  A    between atoms: _144  and  _145
REMARK   63  A    between atoms: _147  and  _149
REMARK   64  A    between atoms: _149  and  _150
REMARK   65  A    between atoms: _149  and  _152
REMARK   66  A    between atoms: _152  and  _153
REMARK   67  A    between atoms: _159  and  _161
REMARK   68  A    between atoms: _161  and  _162
REMARK   69  A    between atoms: _161  and  _164
REMARK   70  A    between atoms: _164  and  _165
REMARK   71  A    between atoms: _168  and  _170
REMARK   72  A    between atoms: _170  and  _171
REMARK   73  A    between atoms: _170  and  _173
REMARK   74  A    between atoms: _176  and  _178
REMARK   75  A    between atoms: _178  and  _179
REMARK   76  A    between atoms: _178  and  _181
REMARK   77  A    between atoms: _181  and  _182
REMARK   78  A    between atoms: _185  and  _187
REMARK   79  A    between atoms: _187  and  _188
REMARK   80  A    between atoms: _187  and  _190
REMARK   81  A    between atoms: _190  and  _191
REMARK   82  A    between atoms: _195  and  _196
REMARK   83  A    between atoms: _201  and  _203
REMARK   84  A    between atoms: _203  and  _204
REMARK   85  A    between atoms: _203  and  _206
REMARK   86  A    between atoms: _209  and  _211
REMARK   87  A    between atoms: _211  and  _212
REMARK   88  A    between atoms: _211  and  _214
REMARK   89  A    between atoms: _214  and  _215
REMARK   90  A    between atoms: _220  and  _222
REMARK   91  A    between atoms: _222  and  _223
REMARK   92  A    between atoms: _222  and  _225
REMARK   93  A    between atoms: _225  and  _226
REMARK   94  A    between atoms: _229  and  _231
REMARK   95  A    between atoms: _231  and  _232
REMARK   96  A    between atoms: _231  and  _234
REMARK   97  A    between atoms: _234  and  _235
REMARK   98  A    between atoms: _238  and  _240
REMARK   99  A    between atoms: _240  and  _241
REMARK  100  A    between atoms: _243  and  _245
REMARK  101  A    between atoms: _245  and  _246
REMARK  102  A    between atoms: _245  and  _248
REMARK  103  A    between atoms: _248  and  _249
REMARK  104  A    between atoms: _249  and  _250
REMARK  105  A    between atoms: _250  and  _251
REMARK  106  A    between atoms: _260  and  _262
REMARK  107  A    between atoms: _262  and  _263
REMARK  108  A    between atoms: _262  and  _265
REMARK  109  A    between atoms: _265  and  _266
REMARK  110  A    between atoms: _271  and  _273
REMARK  111  A    between atoms: _273  and  _274
REMARK  112  A    between atoms: _273  and  _276
REMARK  113  A    between atoms: _276  and  _277
REMARK  114  A    between atoms: _277  and  _278
REMARK  115  A    between atoms: _278  and  _279
REMARK  116  A    between atoms: _288  and  _290
REMARK  117  A    between atoms: _290  and  _291
REMARK  118  A    between atoms: _290  and  _293
REMARK  119  A    between atoms: _293  and  _294
REMARK  120  A    between atoms: _297  and  _299
REMARK  121  A    between atoms: _299  and  _300
REMARK  122  A    between atoms: _299  and  _302
REMARK  123  A    between atoms: _302  and  _303
REMARK  124  A    between atoms: _306  and  _308
REMARK  125  A    between atoms: _308  and  _309
REMARK  126  A    between atoms: _308  and  _311
REMARK  127  A    between atoms: _311  and  _312
REMARK  128  A    between atoms: _315  and  _317
REMARK  129  A    between atoms: _317  and  _318
REMARK  130  A    between atoms: _317  and  _320
REMARK  131  A    between atoms: _320  and  _321
REMARK  132  A    between atoms: _324  and  _326
REMARK  133  A    between atoms: _326  and  _327
REMARK  134  A    between atoms: _329  and  _331
REMARK  135  A    between atoms: _331  and  _332
REMARK  136  A    between atoms: _335  and  _337
REMARK  137  A    between atoms: _337  and  _338
REMARK  138  A    between atoms: _337  and  _340
REMARK  139  A    between atoms: _340  and  _341
REMARK  140  A    between atoms: _344  and  _346
REMARK  141  A    between atoms: _346  and  _347
REMARK  142  A    between atoms: _346  and  _349
REMARK  143  A    between atoms: _349  and  _350
REMARK  144  A    between atoms: _353  and  _355
REMARK  145  A    between atoms: _355  and  _356
REMARK  146  A    between atoms: _355  and  _358
REMARK  147  A    between atoms: _358  and  _359
REMARK  148  A    between atoms: _362  and  _364
REMARK  149  A    between atoms: _364  and  _365
REMARK  150  A    between atoms: _364  and  _367
REMARK  151  A    between atoms: _370  and  _372
REMARK  152  A    between atoms: _372  and  _373
REMARK  153  A    between atoms: _372  and  _375
REMARK  154  A    between atoms: _375  and  _376
REMARK  155  A    between atoms: _376  and  _377
REMARK  156  A    between atoms: _377  and  _378
REMARK  157  A    between atoms: _378  and  _379
REMARK  158  A    between atoms: _383  and  _385
REMARK  159  A    between atoms: _385  and  _386
REMARK  160  A    between atoms: _385  and  _388
REMARK  161  A    between atoms: _388  and  _389
REMARK  162  A    between atoms: _389  and  _390
REMARK  163  A    between atoms: _392  and  _394
REMARK  164  A    between atoms: _394  and  _395
REMARK  165  A    between atoms: _394  and  _397
REMARK  166  A    between atoms: _397  and  _398
REMARK  167  A    between atoms: _401  and  _403
REMARK  168  A    between atoms: _403  and  _404
REMARK  169  A    between atoms: _406  and  _408
REMARK  170  A    between atoms: _408  and  _409
REMARK  171  A    between atoms: _411  and  _413
REMARK  172  A    between atoms: _413  and  _414
REMARK  173  A    between atoms: _413  and  _416
REMARK  174  A    between atoms: _416  and  _417
REMARK  175  A    between atoms: _420  and  _422
REMARK  176  A    between atoms: _422  and  _423
REMARK  177  A    between atoms: _425  and  _427
REMARK  178  A    between atoms: _427  and  _428
REMARK  179  A    between atoms: _430  and  _432
REMARK  180  A    between atoms: _432  and  _433
REMARK  181  A    between atoms: _432  and  _435
REMARK  182  A    between atoms: _435  and  _436
REMARK  183  A    between atoms: _442  and  _444
REMARK  184  A    between atoms: _444  and  _445
REMARK  185  A    between atoms: _444  and  _447
REMARK  186  A    between atoms: _447  and  _448
REMARK  187  A    between atoms: _451  and  _453
REMARK  188  A    between atoms: _453  and  _454
REMARK  189  A    between atoms: _453  and  _456
REMARK  190  A    between atoms: _459  and  _461
REMARK  191  A    between atoms: _461  and  _462
REMARK  192  A    between atoms: _461  and  _464
REMARK  193  A    between atoms: _464  and  _465
REMARK  194  A    between atoms: _468  and  _470
REMARK  195  A    between atoms: _470  and  _471
REMARK  196  A    between atoms: _470  and  _473
REMARK  197  A    between atoms: _473  and  _474
REMARK  198  A    between atoms: _478  and  _479
REMARK  199  A    between atoms: _484  and  _486
REMARK  200  A    between atoms: _486  and  _487
REMARK  201  A    between atoms: _486  and  _489
REMARK  202  A    between atoms: _492  and  _494
REMARK  203  A    between atoms: _494  and  _495
REMARK  204  A    between atoms: _494  and  _497
REMARK  205  A    between atoms: _497  and  _498
REMARK  206  A    between atoms: _503  and  _505
REMARK  207  A    between atoms: _505  and  _506
REMARK  208  A    between atoms: _505  and  _508
REMARK  209  A    between atoms: _508  and  _509
REMARK  210  A    between atoms: _512  and  _514
REMARK  211  A    between atoms: _514  and  _515
REMARK  212  A    between atoms: _514  and  _517
REMARK  213  A    between atoms: _517  and  _518
REMARK  214  A    between atoms: _521  and  _523
REMARK  215  A    between atoms: _523  and  _524
REMARK  216  A    between atoms: _526  and  _528
REMARK  217  A    between atoms: _528  and  _529
REMARK  218  A    between atoms: _528  and  _531
REMARK  219  A    between atoms: _531  and  _532
REMARK  220  A    between atoms: _532  and  _533
REMARK  221  A    between atoms: _533  and  _534
REMARK                            x       y       z     vdW  Elec       q    Type
REMARK                         _______ _______ _______ _____ _____    ______ ____
ROOT
ATOM      1  O   HOH     1       9.046  -9.880  19.800  0.00  0.00    +0.000 OA
ENDROOT
TORSDOF 0
REMARK  Name = ../refined-set-2016/1mtr/1mtr_pocket.pdb
REMARK  221 active torsions:
REMARK  status: ('A' for Active; 'I' for Inactive)
REMARK    1  A    between atoms: _1  and  _3
REMARK    2  A    between atoms: _3  and  _4
REMARK    3  A    between atoms: _3  and  _6
REMARK    4  A    between atoms: _6  and  _7
REMARK    5  A    between atoms: _7  and  _8
REMARK    6  A    between atoms: _8  and  _9
REMARK    7  A    between atoms: _18  and  _20
REMARK    8  A    between atoms: _20  and  _21
REMARK    9  A    between atoms: _20  and  _23
REMARK   10  A    between atoms: _23  and  _24
REMARK   11  A    between atoms: _27  and  _29
REMARK   12  A    between atoms: _29  and  _30
REMARK   13  A    between atoms: _29  and  _32
REMARK   14  A    between atoms: _32  and  _33
REMARK   15  A    between atoms: _36  and  _38
REMARK   16  A    between atoms: _38  and  _39
REMARK   17  A    between atoms: _38  and  _41
REMARK   18  A    between atoms: _41  and  _42
REMARK   19  A    between atoms: _45  and  _47
REMARK   20  A    between atoms: _47  and  _48
REMARK   21  A    between atoms: _47  and  _50
REMARK   22  A    between atoms: _50  and  _51
REMARK   23  A    between atoms: _54  and  _56
REMARK   24  A    between atoms: _56  and  _57
REMARK   25  A    between atoms: _59  and  _61
REMARK   26  A    between atoms: _61  and  _62
REMARK   27  A    between atoms: _65  and  _67
REMARK   28  A    between atoms: _67  and  _68
REMARK   29  A    between atoms: _67  and  _70
REMARK   30  A    between atoms: _70  and  _71
REMARK   31  A    between atoms: _74  and  _76
REMARK   32  A    between atoms: _76  and  _77
REMARK   33  A    between atoms: _76  and  _79
REMARK   34  A    between atoms: _79  and  _80
REMARK   35  A    between atoms: _83  and  _85
REMARK   36  A    between atoms: _85  and  _86
REMARK   37  A    between atoms: _85  and  _88
REMARK   38  A    between atoms: _88  and  _89
REMARK   39  A    between atoms: _92  and  _94
REMARK   40  A    between atoms: _94  and  _95
REMARK   41  A    between atoms: _94  and  _97
REMARK   42  A    between atoms: _100  and  _102
REMARK   43  A    between atoms: _102  and  _103
REMARK   44  A    between atoms: _102  and  _105
REMARK   45  A    between atoms: _105  and  _106
REMARK   46  A    between atoms: _106  and  _107
REMARK   47  A    between atoms: _109  and  _111
REMARK   48  A    between atoms: _111  and  _112
REMARK   49  A    between atoms: _111  and  _114
REMARK   50  A    between atoms: _114  and  _115
REMARK   51  A    between atoms: _118  and  _120
REMARK   52  A    between atoms: _120  and  _121
REMARK   53  A    between atoms: _123  and  _125
REMARK   54  A    between atoms: _125  and  _126
REMARK   55  A    between atoms: _128  and  _130
REMARK   56  A    between atoms: _130  and  _131
REMARK   57  A    between atoms: _130  and  _133
REMARK   58  A    between atoms: _133  and  _134
REMARK   59  A    between atoms: _137  and  _139
REMARK   60  A    between atoms: _139  and  _140
REMARK   61  A    between atoms: _142  and  _144
REMARK   62  A    between atoms: _144  and  _145
REMARK   63  A    between atoms: _147  and  _149
REMARK   64  A    between atoms: _149  and  _150
REMARK   65  A    between atoms: _149  and  _152
REMARK   66  A    between atoms: _152  and  _153
REMARK   67  A    between atoms: _159  and  _161
REMARK   68  A    between atoms: _161  and  _162
REMARK   69  A    between atoms: _161  and  _164
REMARK   70  A    between atoms: _164  and  _165
REMARK   71  A    between atoms: _168  and  _170
REMARK   72  A    between atoms: _170  and  _171
REMARK   73  A    between atoms: _170  and  _173
REMARK   74  A    between atoms: _176  and  _178
REMARK   75  A    between atoms: _178  and  _179
REMARK   76  A    between atoms: _178  and  _181
REMARK   77  A    between atoms: _181  and  _182
REMARK   78  A    between atoms: _185  and  _187
REMARK   79  A    between atoms: _187  and  _188
REMARK   80  A    between atoms: _187  and  _190
REMARK   81  A    between atoms: _190  and  _191
REMARK   82  A    between atoms: _195  and  _196
REMARK   83  A    between atoms: _201  and  _203
REMARK   84  A    between atoms: _203  and  _204
REMARK   85  A    between atoms: _203  and  _206
REMARK   86  A    between atoms: _209  and  _211
REMARK   87  A    between atoms: _211  and  _212
REMARK   88  A    between atoms: _211  and  _214
REMARK   89  A    between atoms: _214  and  _215
REMARK   90  A    between atoms: _220  and  _222
REMARK   91  A    between atoms: _222  and  _223
REMARK   92  A    between atoms: _222  and  _225
REMARK   93  A    between atoms: _225  and  _226
REMARK   94  A    between atoms: _229  and  _231
REMARK   95  A    between atoms: _231  and  _232
REMARK   96  A    between atoms: _231  and  _234
REMARK   97  A    between atoms: _234  and  _235
REMARK   98  A    between atoms: _238  and  _240
REMARK   99  A    between atoms: _240  and  _241
REMARK  100  A    between atoms: _243  and  _245
REMARK  101  A    between atoms: _245  and  _246
REMARK  102  A    between atoms: _245  and  _248
REMARK  103  A    between atoms: _248  and  _249
REMARK  104  A    between atoms: _249  and  _250
REMARK  105  A    between atoms: _250  and  _251
REMARK  106  A    between atoms: _260  and  _262
REMARK  107  A    between atoms: _262  and  _263
REMARK  108  A    between atoms: _262  and  _265
REMARK  109  A    between atoms: _265  and  _266
REMARK  110  A    between atoms: _271  and  _273
REMARK  111  A    between atoms: _273  and  _274
REMARK  112  A    between atoms: _273  and  _276
REMARK  113  A    between atoms: _276  and  _277
REMARK  114  A    between atoms: _277  and  _278
REMARK  115  A    between atoms: _278  and  _279
REMARK  116  A    between atoms: _288  and  _290
REMARK  117  A    between atoms: _290  and  _291
REMARK  118  A    between atoms: _290  and  _293
REMARK  119  A    between atoms: _293  and  _294
REMARK  120  A    between atoms: _297  and  _299
REMARK  121  A    between atoms: _299  and  _300
REMARK  122  A    between atoms: _299  and  _302
REMARK  123  A    between atoms: _302  and  _303
REMARK  124  A    between atoms: _306  and  _308
REMARK  125  A    between atoms: _308  and  _309
REMARK  126  A    between atoms: _308  and  _311
REMARK  127  A    between atoms: _311  and  _312
REMARK  128  A    between atoms: _315  and  _317
REMARK  129  A    between atoms: _317  and  _318
REMARK  130  A    between atoms: _317  and  _320
REMARK  131  A    between atoms: _320  and  _321
REMARK  132  A    between atoms: _324  and  _326
REMARK  133  A    between atoms: _326  and  _327
REMARK  134  A    between atoms: _329  and  _331
REMARK  135  A    between atoms: _331  and  _332
REMARK  136  A    between atoms: _335  and  _337
REMARK  137  A    between atoms: _337  and  _338
REMARK  138  A    between atoms: _337  and  _340
REMARK  139  A    between atoms: _340  and  _341
REMARK  140  A    between atoms: _344  and  _346
REMARK  141  A    between atoms: _346  and  _347
REMARK  142  A    between atoms: _346  and  _349
REMARK  143  A    between atoms: _349  and  _350
REMARK  144  A    between atoms: _353  and  _355
REMARK  145  A    between atoms: _355  and  _356
REMARK  146  A    between atoms: _355  and  _358
REMARK  147  A    between atoms: _358  and  _359
REMARK  148  A    between atoms: _362  and  _364
REMARK  149  A    between atoms: _364  and  _365
REMARK  150  A    between atoms: _364  and  _367
REMARK  151  A    between atoms: _370  and  _372
REMARK  152  A    between atoms: _372  and  _373
REMARK  153  A    between atoms: _372  and  _375
REMARK  154  A    between atoms: _375  and  _376
REMARK  155  A    between atoms: _376  and  _377
REMARK  156  A    between atoms: _377  and  _378
REMARK  157  A    between atoms: _378  and  _379
REMARK  158  A    between atoms: _383  and  _385
REMARK  159  A    between atoms: _385  and  _386
REMARK  160  A    between atoms: _385  and  _388
REMARK  161  A    between atoms: _388  and  _389
REMARK  162  A    between atoms: _389  and  _390
REMARK  163  A    between atoms: _392  and  _394
REMARK  164  A    between atoms: _394  and  _395
REMARK  165  A    between atoms: _394  and  _397
REMARK  166  A    between atoms: _397  and  _398
REMARK  167  A    between atoms: _401  and  _403
REMARK  168  A    between atoms: _403  and  _404
REMARK  169  A    between atoms: _406  and  _408
REMARK  170  A    between atoms: _408  and  _409
REMARK  171  A    between atoms: _411  and  _413
REMARK  172  A    between atoms: _413  and  _414
REMARK  173  A    between atoms: _413  and  _416
REMARK  174  A    between atoms: _416  and  _417
REMARK  175  A    between atoms: _420  and  _422
REMARK  176  A    between atoms: _422  and  _423
REMARK  177  A    between atoms: _425  and  _427
REMARK  178  A    between atoms: _427  and  _428
REMARK  179  A    between atoms: _430  and  _432
REMARK  180  A    between atoms: _432  and  _433
REMARK  181  A    between atoms: _432  and  _435
REMARK  182  A    between atoms: _435  and  _436
REMARK  183  A    between atoms: _442  and  _444
REMARK  184  A    between atoms: _444  and  _445
REMARK  185  A    between atoms: _444  and  _447
REMARK  186  A    between atoms: _447  and  _448
REMARK  187  A    between atoms: _451  and  _453
REMARK  188  A    between atoms: _453  and  _454
REMARK  189  A    between atoms: _453  and  _456
REMARK  190  A    between atoms: _459  and  _461
REMARK  191  A    between atoms: _461  and  _462
REMARK  192  A    between atoms: _461  and  _464
REMARK  193  A    between atoms: _464  and  _465
REMARK  194  A    between atoms: _468  and  _470
REMARK  195  A    between atoms: _470  and  _471
REMARK  196  A    between atoms: _470  and  _473
REMARK  197  A    between atoms: _473  and  _474
REMARK  198  A    between atoms: _478  and  _479
REMARK  199  A    between atoms: _484  and  _486
REMARK  200  A    between atoms: _486  and  _487
REMARK  201  A    between atoms: _486  and  _489
REMARK  202  A    between atoms: _492  and  _494
REMARK  203  A    between atoms: _494  and  _495
REMARK  204  A    between atoms: _494  and  _497
REMARK  205  A    between atoms: _497  and  _498
REMARK  206  A    between atoms: _503  and  _505
REMARK  207  A    between atoms: _505  and  _506
REMARK  208  A    between atoms: _505  and  _508
REMARK  209  A    between atoms: _508  and  _509
REMARK  210  A    between atoms: _512  and  _514
REMARK  211  A    between atoms: _514  and  _515
REMARK  212  A    between atoms: _514  and  _517
REMARK  213  A    between atoms: _517  and  _518
REMARK  214  A    between atoms: _521  and  _523
REMARK  215  A    between atoms: _523  and  _524
REMARK  216  A    between atoms: _526  and  _528
REMARK  217  A    between atoms: _528  and  _529
REMARK  218  A    between atoms: _528  and  _531
REMARK  219  A    between atoms: _531  and  _532
REMARK  220  A    between atoms: _532  and  _533
REMARK  221  A    between atoms: _533  and  _534
REMARK                            x       y       z     vdW  Elec       q    Type
REMARK                         _______ _______ _______ _____ _____    ______ ____
ROOT
ATOM      1  O   HOH     1      10.723 -10.142  22.809  0.00  0.00    +0.000 OA
ENDROOT
TORSDOF 0
