REMARK  Name = ../refined-set-2016/1ec1/1ec1_pocket.pdb
REMARK  233 active torsions:
REMARK  status: ('A' for Active; 'I' for Inactive)
REMARK    1  A    between atoms: _1  and  _3
REMARK    2  A    between atoms: _3  and  _4
REMARK    3  A    between atoms: _3  and  _6
REMARK    4  A    between atoms: _6  and  _7
REMARK    5  A    between atoms: _7  and  _8
REMARK    6  A    between atoms: _8  and  _9
REMARK    7  A    between atoms: _18  and  _20
REMARK    8  A    between atoms: _20  and  _21
REMARK    9  A    between atoms: _20  and  _23
REMARK   10  A    between atoms: _23  and  _24
REMARK   11  A    between atoms: _27  and  _29
REMARK   12  A    between atoms: _29  and  _30
REMARK   13  A    between atoms: _29  and  _32
REMARK   14  A    between atoms: _32  and  _33
REMARK   15  A    between atoms: _36  and  _38
REMARK   16  A    between atoms: _38  and  _39
REMARK   17  A    between atoms: _38  and  _41
REMARK   18  A    between atoms: _41  and  _42
REMARK   19  A    between atoms: _45  and  _47
REMARK   20  A    between atoms: _47  and  _48
REMARK   21  A    between atoms: _47  and  _50
REMARK   22  A    between atoms: _50  and  _51
REMARK   23  A    between atoms: _54  and  _56
REMARK   24  A    between atoms: _56  and  _57
REMARK   25  A    between atoms: _56  and  _59
REMARK   26  A    between atoms: _59  and  _60
REMARK   27  A    between atoms: _63  and  _65
REMARK   28  A    between atoms: _65  and  _66
REMARK   29  A    between atoms: _68  and  _70
REMARK   30  A    between atoms: _70  and  _71
REMARK   31  A    between atoms: _74  and  _76
REMARK   32  A    between atoms: _76  and  _77
REMARK   33  A    between atoms: _76  and  _79
REMARK   34  A    between atoms: _79  and  _80
REMARK   35  A    between atoms: _83  and  _85
REMARK   36  A    between atoms: _85  and  _86
REMARK   37  A    between atoms: _85  and  _88
REMARK   38  A    between atoms: _88  and  _89
REMARK   39  A    between atoms: _92  and  _94
REMARK   40  A    between atoms: _94  and  _95
REMARK   41  A    between atoms: _94  and  _97
REMARK   42  A    between atoms: _97  and  _98
REMARK   43  A    between atoms: _101  and  _103
REMARK   44  A    between atoms: _103  and  _104
REMARK   45  A    between atoms: _103  and  _106
REMARK   46  A    between atoms: _109  and  _111
REMARK   47  A    between atoms: _111  and  _112
REMARK   48  A    between atoms: _111  and  _114
REMARK   49  A    between atoms: _114  and  _115
REMARK   50  A    between atoms: _115  and  _116
REMARK   51  A    between atoms: _116  and  _117
REMARK   52  A    between atoms: _117  and  _118
REMARK   53  A    between atoms: _122  and  _124
REMARK   54  A    between atoms: _124  and  _125
REMARK   55  A    between atoms: _124  and  _127
REMARK   56  A    between atoms: _127  and  _128
REMARK   57  A    between atoms: _128  and  _129
REMARK   58  A    between atoms: _131  and  _133
REMARK   59  A    between atoms: _133  and  _134
REMARK   60  A    between atoms: _133  and  _136
REMARK   61  A    between atoms: _136  and  _137
REMARK   62  A    between atoms: _140  and  _142
REMARK   63  A    between atoms: _142  and  _143
REMARK   64  A    between atoms: _145  and  _147
REMARK   65  A    between atoms: _147  and  _148
REMARK   66  A    between atoms: _150  and  _152
REMARK   67  A    between atoms: _152  and  _153
REMARK   68  A    between atoms: _152  and  _155
REMARK   69  A    between atoms: _155  and  _156
REMARK   70  A    between atoms: _159  and  _161
REMARK   71  A    between atoms: _161  and  _162
REMARK   72  A    between atoms: _164  and  _166
REMARK   73  A    between atoms: _166  and  _167
REMARK   74  A    between atoms: _169  and  _171
REMARK   75  A    between atoms: _171  and  _172
REMARK   76  A    between atoms: _171  and  _174
REMARK   77  A    between atoms: _174  and  _175
REMARK   78  A    between atoms: _181  and  _183
REMARK   79  A    between atoms: _183  and  _184
REMARK   80  A    between atoms: _183  and  _186
REMARK   81  A    between atoms: _186  and  _187
REMARK   82  A    between atoms: _190  and  _192
REMARK   83  A    between atoms: _192  and  _193
REMARK   84  A    between atoms: _192  and  _195
REMARK   85  A    between atoms: _198  and  _200
REMARK   86  A    between atoms: _200  and  _201
REMARK   87  A    between atoms: _200  and  _203
REMARK   88  A    between atoms: _203  and  _204
REMARK   89  A    between atoms: _207  and  _209
REMARK   90  A    between atoms: _209  and  _210
REMARK   91  A    between atoms: _209  and  _212
REMARK   92  A    between atoms: _212  and  _213
REMARK   93  A    between atoms: _217  and  _218
REMARK   94  A    between atoms: _223  and  _225
REMARK   95  A    between atoms: _225  and  _226
REMARK   96  A    between atoms: _225  and  _228
REMARK   97  A    between atoms: _231  and  _233
REMARK   98  A    between atoms: _233  and  _234
REMARK   99  A    between atoms: _233  and  _236
REMARK  100  A    between atoms: _236  and  _237
REMARK  101  A    between atoms: _242  and  _244
REMARK  102  A    between atoms: _244  and  _245
REMARK  103  A    between atoms: _244  and  _247
REMARK  104  A    between atoms: _247  and  _248
REMARK  105  A    between atoms: _251  and  _253
REMARK  106  A    between atoms: _253  and  _254
REMARK  107  A    between atoms: _253  and  _256
REMARK  108  A    between atoms: _256  and  _257
REMARK  109  A    between atoms: _260  and  _262
REMARK  110  A    between atoms: _262  and  _263
REMARK  111  A    between atoms: _265  and  _267
REMARK  112  A    between atoms: _267  and  _268
REMARK  113  A    between atoms: _267  and  _270
REMARK  114  A    between atoms: _270  and  _271
REMARK  115  A    between atoms: _271  and  _272
REMARK  116  A    between atoms: _272  and  _273
REMARK  117  A    between atoms: _282  and  _284
REMARK  118  A    between atoms: _284  and  _285
REMARK  119  A    between atoms: _284  and  _287
REMARK  120  A    between atoms: _287  and  _288
REMARK  121  A    between atoms: _288  and  _289
REMARK  122  A    between atoms: _289  and  _290
REMARK  123  A    between atoms: _299  and  _301
REMARK  124  A    between atoms: _301  and  _302
REMARK  125  A    between atoms: _301  and  _304
REMARK  126  A    between atoms: _304  and  _305
REMARK  127  A    between atoms: _308  and  _310
REMARK  128  A    between atoms: _310  and  _311
REMARK  129  A    between atoms: _310  and  _313
REMARK  130  A    between atoms: _313  and  _314
REMARK  131  A    between atoms: _317  and  _319
REMARK  132  A    between atoms: _319  and  _320
REMARK  133  A    between atoms: _319  and  _322
REMARK  134  A    between atoms: _322  and  _323
REMARK  135  A    between atoms: _326  and  _328
REMARK  136  A    between atoms: _328  and  _329
REMARK  137  A    between atoms: _328  and  _331
REMARK  138  A    between atoms: _331  and  _332
REMARK  139  A    between atoms: _335  and  _337
REMARK  140  A    between atoms: _337  and  _338
REMARK  141  A    between atoms: _337  and  _340
REMARK  142  A    between atoms: _340  and  _341
REMARK  143  A    between atoms: _344  and  _346
REMARK  144  A    between atoms: _346  and  _347
REMARK  145  A    between atoms: _349  and  _351
REMARK  146  A    between atoms: _351  and  _352
REMARK  147  A    between atoms: _355  and  _357
REMARK  148  A    between atoms: _357  and  _358
REMARK  149  A    between atoms: _357  and  _360
REMARK  150  A    between atoms: _360  and  _361
REMARK  151  A    between atoms: _364  and  _366
REMARK  152  A    between atoms: _366  and  _367
REMARK  153  A    between atoms: _366  and  _369
REMARK  154  A    between atoms: _369  and  _370
REMARK  155  A    between atoms: _373  and  _375
REMARK  156  A    between atoms: _375  and  _376
REMARK  157  A    between atoms: _375  and  _378
REMARK  158  A    between atoms: _378  and  _379
REMARK  159  A    between atoms: _382  and  _384
REMARK  160  A    between atoms: _384  and  _385
REMARK  161  A    between atoms: _384  and  _387
REMARK  162  A    between atoms: _390  and  _392
REMARK  163  A    between atoms: _392  and  _393
REMARK  164  A    between atoms: _392  and  _395
REMARK  165  A    between atoms: _395  and  _396
REMARK  166  A    between atoms: _396  and  _397
REMARK  167  A    between atoms: _397  and  _398
REMARK  168  A    between atoms: _398  and  _399
REMARK  169  A    between atoms: _403  and  _405
REMARK  170  A    between atoms: _405  and  _406
REMARK  171  A    between atoms: _405  and  _408
REMARK  172  A    between atoms: _408  and  _409
REMARK  173  A    between atoms: _409  and  _410
REMARK  174  A    between atoms: _412  and  _414
REMARK  175  A    between atoms: _414  and  _415
REMARK  176  A    between atoms: _414  and  _417
REMARK  177  A    between atoms: _417  and  _418
REMARK  178  A    between atoms: _421  and  _423
REMARK  179  A    between atoms: _423  and  _424
REMARK  180  A    between atoms: _426  and  _428
REMARK  181  A    between atoms: _428  and  _429
REMARK  182  A    between atoms: _431  and  _433
REMARK  183  A    between atoms: _433  and  _434
REMARK  184  A    between atoms: _433  and  _436
REMARK  185  A    between atoms: _436  and  _437
REMARK  186  A    between atoms: _440  and  _442
REMARK  187  A    between atoms: _442  and  _443
REMARK  188  A    between atoms: _445  and  _447
REMARK  189  A    between atoms: _447  and  _448
REMARK  190  A    between atoms: _450  and  _452
REMARK  191  A    between atoms: _452  and  _453
REMARK  192  A    between atoms: _452  and  _455
REMARK  193  A    between atoms: _455  and  _456
REMARK  194  A    between atoms: _462  and  _464
REMARK  195  A    between atoms: _464  and  _465
REMARK  196  A    between atoms: _464  and  _467
REMARK  197  A    between atoms: _467  and  _468
REMARK  198  A    between atoms: _471  and  _473
REMARK  199  A    between atoms: _473  and  _474
REMARK  200  A    between atoms: _473  and  _476
REMARK  201  A    between atoms: _479  and  _481
REMARK  202  A    between atoms: _481  and  _482
REMARK  203  A    between atoms: _481  and  _484
REMARK  204  A    between atoms: _484  and  _485
REMARK  205  A    between atoms: _489  and  _490
REMARK  206  A    between atoms: _495  and  _497
REMARK  207  A    between atoms: _497  and  _498
REMARK  208  A    between atoms: _497  and  _500
REMARK  209  A    between atoms: _500  and  _501
REMARK  210  A    between atoms: _505  and  _506
REMARK  211  A    between atoms: _511  and  _513
REMARK  212  A    between atoms: _513  and  _514
REMARK  213  A    between atoms: _513  and  _516
REMARK  214  A    between atoms: _519  and  _521
REMARK  215  A    between atoms: _521  and  _522
REMARK  216  A    between atoms: _521  and  _524
REMARK  217  A    between atoms: _524  and  _525
REMARK  218  A    between atoms: _530  and  _532
REMARK  219  A    between atoms: _532  and  _533
REMARK  220  A    between atoms: _532  and  _535
REMARK  221  A    between atoms: _535  and  _536
REMARK  222  A    between atoms: _539  and  _541
REMARK  223  A    between atoms: _541  and  _542
REMARK  224  A    between atoms: _541  and  _544
REMARK  225  A    between atoms: _544  and  _545
REMARK  226  A    between atoms: _548  and  _550
REMARK  227  A    between atoms: _550  and  _551
REMARK  228  A    between atoms: _553  and  _555
REMARK  229  A    between atoms: _555  and  _556
REMARK  230  A    between atoms: _555  and  _558
REMARK  231  A    between atoms: _558  and  _559
REMARK  232  A    between atoms: _559  and  _560
REMARK  233  A    between atoms: _560  and  _561
REMARK                            x       y       z     vdW  Elec       q    Type
REMARK                         _______ _______ _______ _____ _____    ______ ____
ROOT
ATOM      1  NE  ARG A   1      23.356  20.436   7.605  0.00  0.00    -0.265 N 
ATOM      2  CZ  ARG A   1      22.998  19.489   8.462  0.00  0.00    +0.342 C 
ATOM      3  NH2 ARG A   1      23.051  19.723   9.771  0.00  0.00    -0.292 N 
ATOM      4 HH21 ARG A   1      22.770  18.981  10.444  0.00  0.00    +0.255 HD
ATOM      5 HH22 ARG A   1      23.373  20.648  10.121  0.00  0.00    +0.255 HD
ATOM      6  NH1 ARG A   1      22.592  18.311   8.017  0.00  0.00    -0.292 N 
ATOM      7 HH11 ARG A   1      22.312  17.569   8.690  0.00  0.00    +0.255 HD
ATOM      8 HH12 ARG A   1      22.553  18.127   6.994  0.00  0.00    +0.255 HD
ATOM      9  HE  ARG A   1      23.306  20.221   6.589  0.00  0.00    +0.259 HD
ENDROOT
BRANCH   1  10
ATOM     10  CD  ARG A   1      23.815  21.760   8.006  0.00  0.00    +0.174 C 
BRANCH  10  11
ATOM     11  CG  ARG A   1      24.379  22.548   6.843  0.00  0.00    +0.045 C 
BRANCH  11  12
ATOM     12  CB  ARG A   1      24.798  23.938   7.287  0.00  0.00    +0.029 C 
BRANCH  12  13
ATOM     13  CA  ARG A   1      25.458  24.763   6.182  0.00  0.00    +0.133 C 
BRANCH  13  14
ATOM     14  N   ARG A   1      26.733  24.177   5.797  0.00  0.00    -0.239 NA
ATOM     15  H   ARG A   1      27.087  23.332   6.289  0.00  0.00    +0.142 HD
ENDBRANCH  13  14
BRANCH  13  16
ATOM     16  C   ARG A   1      25.769  26.173   6.680  0.00  0.00    +0.224 C 
ATOM     17  O   ARG A   1      26.700  26.369   7.463  0.00  0.00    -0.287 OA
ENDBRANCH  13  16
ENDBRANCH  12  13
ENDBRANCH  11  12
ENDBRANCH  10  11
ENDBRANCH   1  10
TORSDOF 6
REMARK  Name = ../refined-set-2016/1ec1/1ec1_pocket.pdb
REMARK  233 active torsions:
REMARK  status: ('A' for Active; 'I' for Inactive)
REMARK    1  A    between atoms: _1  and  _3
REMARK    2  A    between atoms: _3  and  _4
REMARK    3  A    between atoms: _3  and  _6
REMARK    4  A    between atoms: _6  and  _7
REMARK    5  A    between atoms: _7  and  _8
REMARK    6  A    between atoms: _8  and  _9
REMARK    7  A    between atoms: _18  and  _20
REMARK    8  A    between atoms: _20  and  _21
REMARK    9  A    between atoms: _20  and  _23
REMARK   10  A    between atoms: _23  and  _24
REMARK   11  A    between atoms: _27  and  _29
REMARK   12  A    between atoms: _29  and  _30
REMARK   13  A    between atoms: _29  and  _32
REMARK   14  A    between atoms: _32  and  _33
REMARK   15  A    between atoms: _36  and  _38
REMARK   16  A    between atoms: _38  and  _39
REMARK   17  A    between atoms: _38  and  _41
REMARK   18  A    between atoms: _41  and  _42
REMARK   19  A    between atoms: _45  and  _47
REMARK   20  A    between atoms: _47  and  _48
REMARK   21  A    between atoms: _47  and  _50
REMARK   22  A    between atoms: _50  and  _51
REMARK   23  A    between atoms: _54  and  _56
REMARK   24  A    between atoms: _56  and  _57
REMARK   25  A    between atoms: _56  and  _59
REMARK   26  A    between atoms: _59  and  _60
REMARK   27  A    between atoms: _63  and  _65
REMARK   28  A    between atoms: _65  and  _66
REMARK   29  A    between atoms: _68  and  _70
REMARK   30  A    between atoms: _70  and  _71
REMARK   31  A    between atoms: _74  and  _76
REMARK   32  A    between atoms: _76  and  _77
REMARK   33  A    between atoms: _76  and  _79
REMARK   34  A    between atoms: _79  and  _80
REMARK   35  A    between atoms: _83  and  _85
REMARK   36  A    between atoms: _85  and  _86
REMARK   37  A    between atoms: _85  and  _88
REMARK   38  A    between atoms: _88  and  _89
REMARK   39  A    between atoms: _92  and  _94
REMARK   40  A    between atoms: _94  and  _95
REMARK   41  A    between atoms: _94  and  _97
REMARK   42  A    between atoms: _97  and  _98
REMARK   43  A    between atoms: _101  and  _103
REMARK   44  A    between atoms: _103  and  _104
REMARK   45  A    between atoms: _103  and  _106
REMARK   46  A    between atoms: _109  and  _111
REMARK   47  A    between atoms: _111  and  _112
REMARK   48  A    between atoms: _111  and  _114
REMARK   49  A    between atoms: _114  and  _115
REMARK   50  A    between atoms: _115  and  _116
REMARK   51  A    between atoms: _116  and  _117
REMARK   52  A    between atoms: _117  and  _118
REMARK   53  A    between atoms: _122  and  _124
REMARK   54  A    between atoms: _124  and  _125
REMARK   55  A    between atoms: _124  and  _127
REMARK   56  A    between atoms: _127  and  _128
REMARK   57  A    between atoms: _128  and  _129
REMARK   58  A    between atoms: _131  and  _133
REMARK   59  A    between atoms: _133  and  _134
REMARK   60  A    between atoms: _133  and  _136
REMARK   61  A    between atoms: _136  and  _137
REMARK   62  A    between atoms: _140  and  _142
REMARK   63  A    between atoms: _142  and  _143
REMARK   64  A    between atoms: _145  and  _147
REMARK   65  A    between atoms: _147  and  _148
REMARK   66  A    between atoms: _150  and  _152
REMARK   67  A    between atoms: _152  and  _153
REMARK   68  A    between atoms: _152  and  _155
REMARK   69  A    between atoms: _155  and  _156
REMARK   70  A    between atoms: _159  and  _161
REMARK   71  A    between atoms: _161  and  _162
REMARK   72  A    between atoms: _164  and  _166
REMARK   73  A    between atoms: _166  and  _167
REMARK   74  A    between atoms: _169  and  _171
REMARK   75  A    between atoms: _171  and  _172
REMARK   76  A    between atoms: _171  and  _174
REMARK   77  A    between atoms: _174  and  _175
REMARK   78  A    between atoms: _181  and  _183
REMARK   79  A    between atoms: _183  and  _184
REMARK   80  A    between atoms: _183  and  _186
REMARK   81  A    between atoms: _186  and  _187
REMARK   82  A    between atoms: _190  and  _192
REMARK   83  A    between atoms: _192  and  _193
REMARK   84  A    between atoms: _192  and  _195
REMARK   85  A    between atoms: _198  and  _200
REMARK   86  A    between atoms: _200  and  _201
REMARK   87  A    between atoms: _200  and  _203
REMARK   88  A    between atoms: _203  and  _204
REMARK   89  A    between atoms: _207  and  _209
REMARK   90  A    between atoms: _209  and  _210
REMARK   91  A    between atoms: _209  and  _212
REMARK   92  A    between atoms: _212  and  _213
REMARK   93  A    between atoms: _217  and  _218
REMARK   94  A    between atoms: _223  and  _225
REMARK   95  A    between atoms: _225  and  _226
REMARK   96  A    between atoms: _225  and  _228
REMARK   97  A    between atoms: _231  and  _233
REMARK   98  A    between atoms: _233  and  _234
REMARK   99  A    between atoms: _233  and  _236
REMARK  100  A    between atoms: _236  and  _237
REMARK  101  A    between atoms: _242  and  _244
REMARK  102  A    between atoms: _244  and  _245
REMARK  103  A    between atoms: _244  and  _247
REMARK  104  A    between atoms: _247  and  _248
REMARK  105  A    between atoms: _251  and  _253
REMARK  106  A    between atoms: _253  and  _254
REMARK  107  A    between atoms: _253  and  _256
REMARK  108  A    between atoms: _256  and  _257
REMARK  109  A    between atoms: _260  and  _262
REMARK  110  A    between atoms: _262  and  _263
REMARK  111  A    between atoms: _265  and  _267
REMARK  112  A    between atoms: _267  and  _268
REMARK  113  A    between atoms: _267  and  _270
REMARK  114  A    between atoms: _270  and  _271
REMARK  115  A    between atoms: _271  and  _272
REMARK  116  A    between atoms: _272  and  _273
REMARK  117  A    between atoms: _282  and  _284
REMARK  118  A    between atoms: _284  and  _285
REMARK  119  A    between atoms: _284  and  _287
REMARK  120  A    between atoms: _287  and  _288
REMARK  121  A    between atoms: _288  and  _289
REMARK  122  A    between atoms: _289  and  _290
REMARK  123  A    between atoms: _299  and  _301
REMARK  124  A    between atoms: _301  and  _302
REMARK  125  A    between atoms: _301  and  _304
REMARK  126  A    between atoms: _304  and  _305
REMARK  127  A    between atoms: _308  and  _310
REMARK  128  A    between atoms: _310  and  _311
REMARK  129  A    between atoms: _310  and  _313
REMARK  130  A    between atoms: _313  and  _314
REMARK  131  A    between atoms: _317  and  _319
REMARK  132  A    between atoms: _319  and  _320
REMARK  133  A    between atoms: _319  and  _322
REMARK  134  A    between atoms: _322  and  _323
REMARK  135  A    between atoms: _326  and  _328
REMARK  136  A    between atoms: _328  and  _329
REMARK  137  A    between atoms: _328  and  _331
REMARK  138  A    between atoms: _331  and  _332
REMARK  139  A    between atoms: _335  and  _337
REMARK  140  A    between atoms: _337  and  _338
REMARK  141  A    between atoms: _337  and  _340
REMARK  142  A    between atoms: _340  and  _341
REMARK  143  A    between atoms: _344  and  _346
REMARK  144  A    between atoms: _346  and  _347
REMARK  145  A    between atoms: _349  and  _351
REMARK  146  A    between atoms: _351  and  _352
REMARK  147  A    between atoms: _355  and  _357
REMARK  148  A    between atoms: _357  and  _358
REMARK  149  A    between atoms: _357  and  _360
REMARK  150  A    between atoms: _360  and  _361
REMARK  151  A    between atoms: _364  and  _366
REMARK  152  A    between atoms: _366  and  _367
REMARK  153  A    between atoms: _366  and  _369
REMARK  154  A    between atoms: _369  and  _370
REMARK  155  A    between atoms: _373  and  _375
REMARK  156  A    between atoms: _375  and  _376
REMARK  157  A    between atoms: _375  and  _378
REMARK  158  A    between atoms: _378  and  _379
REMARK  159  A    between atoms: _382  and  _384
REMARK  160  A    between atoms: _384  and  _385
REMARK  161  A    between atoms: _384  and  _387
REMARK  162  A    between atoms: _390  and  _392
REMARK  163  A    between atoms: _392  and  _393
REMARK  164  A    between atoms: _392  and  _395
REMARK  165  A    between atoms: _395  and  _396
REMARK  166  A    between atoms: _396  and  _397
REMARK  167  A    between atoms: _397  and  _398
REMARK  168  A    between atoms: _398  and  _399
REMARK  169  A    between atoms: _403  and  _405
REMARK  170  A    between atoms: _405  and  _406
REMARK  171  A    between atoms: _405  and  _408
REMARK  172  A    between atoms: _408  and  _409
REMARK  173  A    between atoms: _409  and  _410
REMARK  174  A    between atoms: _412  and  _414
REMARK  175  A    between atoms: _414  and  _415
REMARK  176  A    between atoms: _414  and  _417
REMARK  177  A    between atoms: _417  and  _418
REMARK  178  A    between atoms: _421  and  _423
REMARK  179  A    between atoms: _423  and  _424
REMARK  180  A    between atoms: _426  and  _428
REMARK  181  A    between atoms: _428  and  _429
REMARK  182  A    between atoms: _431  and  _433
REMARK  183  A    between atoms: _433  and  _434
REMARK  184  A    between atoms: _433  and  _436
REMARK  185  A    between atoms: _436  and  _437
REMARK  186  A    between atoms: _440  and  _442
REMARK  187  A    between atoms: _442  and  _443
REMARK  188  A    between atoms: _445  and  _447
REMARK  189  A    between atoms: _447  and  _448
REMARK  190  A    between atoms: _450  and  _452
REMARK  191  A    between atoms: _452  and  _453
REMARK  192  A    between atoms: _452  and  _455
REMARK  193  A    between atoms: _455  and  _456
REMARK  194  A    between atoms: _462  and  _464
REMARK  195  A    between atoms: _464  and  _465
REMARK  196  A    between atoms: _464  and  _467
REMARK  197  A    between atoms: _467  and  _468
REMARK  198  A    between atoms: _471  and  _473
REMARK  199  A    between atoms: _473  and  _474
REMARK  200  A    between atoms: _473  and  _476
REMARK  201  A    between atoms: _479  and  _481
REMARK  202  A    between atoms: _481  and  _482
REMARK  203  A    between atoms: _481  and  _484
REMARK  204  A    between atoms: _484  and  _485
REMARK  205  A    between atoms: _489  and  _490
REMARK  206  A    between atoms: _495  and  _497
REMARK  207  A    between atoms: _497  and  _498
REMARK  208  A    between atoms: _497  and  _500
REMARK  209  A    between atoms: _500  and  _501
REMARK  210  A    between atoms: _505  and  _506
REMARK  211  A    between atoms: _511  and  _513
REMARK  212  A    between atoms: _513  and  _514
REMARK  213  A    between atoms: _513  and  _516
REMARK  214  A    between atoms: _519  and  _521
REMARK  215  A    between atoms: _521  and  _522
REMARK  216  A    between atoms: _521  and  _524
REMARK  217  A    between atoms: _524  and  _525
REMARK  218  A    between atoms: _530  and  _532
REMARK  219  A    between atoms: _532  and  _533
REMARK  220  A    between atoms: _532  and  _535
REMARK  221  A    between atoms: _535  and  _536
REMARK  222  A    between atoms: _539  and  _541
REMARK  223  A    between atoms: _541  and  _542
REMARK  224  A    between atoms: _541  and  _544
REMARK  225  A    between atoms: _544  and  _545
REMARK  226  A    between atoms: _548  and  _550
REMARK  227  A    between atoms: _550  and  _551
REMARK  228  A    between atoms: _553  and  _555
REMARK  229  A    between atoms: _555  and  _556
REMARK  230  A    between atoms: _555  and  _558
REMARK  231  A    between atoms: _558  and  _559
REMARK  232  A    between atoms: _559  and  _560
REMARK  233  A    between atoms: _560  and  _561
REMARK                            x       y       z     vdW  Elec       q    Type
REMARK                         _______ _______ _______ _____ _____    ______ ____
ROOT
ATOM      1  CA  LEU A   1      25.317  28.491  10.413  0.00  0.00    +0.133 C 
ENDROOT
BRANCH   1   2
ATOM      2  N   LEU A   1      25.620  28.310   9.003  0.00  0.00    -0.239 NA
ATOM      3  H   LEU A   1      26.470  27.780   8.723  0.00  0.00    +0.142 HD
ENDBRANCH   1   2
BRANCH   1   4
ATOM      4  C   LEU A   1      25.945  29.774  10.914  0.00  0.00    +0.224 C 
ATOM      5  O   LEU A   1      27.104  30.072  10.618  0.00  0.00    -0.287 OA
ENDBRANCH   1   4
BRANCH   1   6
ATOM      6  CB  LEU A   1      25.832  27.305  11.234  0.00  0.00    +0.025 C 
BRANCH   6   7
ATOM      7  CG  LEU A   1      25.116  25.973  10.998  0.00  0.00    +0.002 C 
ATOM      8  CD2 LEU A   1      25.746  24.897  11.868  0.00  0.00    +0.000 C 
ATOM      9  CD1 LEU A   1      23.639  26.110  11.325  0.00  0.00    +0.000 C 
ENDBRANCH   6   7
ENDBRANCH   1   6
TORSDOF 4
REMARK  Name = ../refined-set-2016/1ec1/1ec1_pocket.pdb
REMARK  233 active torsions:
REMARK  status: ('A' for Active; 'I' for Inactive)
REMARK    1  A    between atoms: _1  and  _3
REMARK    2  A    between atoms: _3  and  _4
REMARK    3  A    between atoms: _3  and  _6
REMARK    4  A    between atoms: _6  and  _7
REMARK    5  A    between atoms: _7  and  _8
REMARK    6  A    between atoms: _8  and  _9
REMARK    7  A    between atoms: _18  and  _20
REMARK    8  A    between atoms: _20  and  _21
REMARK    9  A    between atoms: _20  and  _23
REMARK   10  A    between atoms: _23  and  _24
REMARK   11  A    between atoms: _27  and  _29
REMARK   12  A    between atoms: _29  and  _30
REMARK   13  A    between atoms: _29  and  _32
REMARK   14  A    between atoms: _32  and  _33
REMARK   15  A    between atoms: _36  and  _38
REMARK   16  A    between atoms: _38  and  _39
REMARK   17  A    between atoms: _38  and  _41
REMARK   18  A    between atoms: _41  and  _42
REMARK   19  A    between atoms: _45  and  _47
REMARK   20  A    between atoms: _47  and  _48
REMARK   21  A    between atoms: _47  and  _50
REMARK   22  A    between atoms: _50  and  _51
REMARK   23  A    between atoms: _54  and  _56
REMARK   24  A    between atoms: _56  and  _57
REMARK   25  A    between atoms: _56  and  _59
REMARK   26  A    between atoms: _59  and  _60
REMARK   27  A    between atoms: _63  and  _65
REMARK   28  A    between atoms: _65  and  _66
REMARK   29  A    between atoms: _68  and  _70
REMARK   30  A    between atoms: _70  and  _71
REMARK   31  A    between atoms: _74  and  _76
REMARK   32  A    between atoms: _76  and  _77
REMARK   33  A    between atoms: _76  and  _79
REMARK   34  A    between atoms: _79  and  _80
REMARK   35  A    between atoms: _83  and  _85
REMARK   36  A    between atoms: _85  and  _86
REMARK   37  A    between atoms: _85  and  _88
REMARK   38  A    between atoms: _88  and  _89
REMARK   39  A    between atoms: _92  and  _94
REMARK   40  A    between atoms: _94  and  _95
REMARK   41  A    between atoms: _94  and  _97
REMARK   42  A    between atoms: _97  and  _98
REMARK   43  A    between atoms: _101  and  _103
REMARK   44  A    between atoms: _103  and  _104
REMARK   45  A    between atoms: _103  and  _106
REMARK   46  A    between atoms: _109  and  _111
REMARK   47  A    between atoms: _111  and  _112
REMARK   48  A    between atoms: _111  and  _114
REMARK   49  A    between atoms: _114  and  _115
REMARK   50  A    between atoms: _115  and  _116
REMARK   51  A    between atoms: _116  and  _117
REMARK   52  A    between atoms: _117  and  _118
REMARK   53  A    between atoms: _122  and  _124
REMARK   54  A    between atoms: _124  and  _125
REMARK   55  A    between atoms: _124  and  _127
REMARK   56  A    between atoms: _127  and  _128
REMARK   57  A    between atoms: _128  and  _129
REMARK   58  A    between atoms: _131  and  _133
REMARK   59  A    between atoms: _133  and  _134
REMARK   60  A    between atoms: _133  and  _136
REMARK   61  A    between atoms: _136  and  _137
REMARK   62  A    between atoms: _140  and  _142
REMARK   63  A    between atoms: _142  and  _143
REMARK   64  A    between atoms: _145  and  _147
REMARK   65  A    between atoms: _147  and  _148
REMARK   66  A    between atoms: _150  and  _152
REMARK   67  A    between atoms: _152  and  _153
REMARK   68  A    between atoms: _152  and  _155
REMARK   69  A    between atoms: _155  and  _156
REMARK   70  A    between atoms: _159  and  _161
REMARK   71  A    between atoms: _161  and  _162
REMARK   72  A    between atoms: _164  and  _166
REMARK   73  A    between atoms: _166  and  _167
REMARK   74  A    between atoms: _169  and  _171
REMARK   75  A    between atoms: _171  and  _172
REMARK   76  A    between atoms: _171  and  _174
REMARK   77  A    between atoms: _174  and  _175
REMARK   78  A    between atoms: _181  and  _183
REMARK   79  A    between atoms: _183  and  _184
REMARK   80  A    between atoms: _183  and  _186
REMARK   81  A    between atoms: _186  and  _187
REMARK   82  A    between atoms: _190  and  _192
REMARK   83  A    between atoms: _192  and  _193
REMARK   84  A    between atoms: _192  and  _195
REMARK   85  A    between atoms: _198  and  _200
REMARK   86  A    between atoms: _200  and  _201
REMARK   87  A    between atoms: _200  and  _203
REMARK   88  A    between atoms: _203  and  _204
REMARK   89  A    between atoms: _207  and  _209
REMARK   90  A    between atoms: _209  and  _210
REMARK   91  A    between atoms: _209  and  _212
REMARK   92  A    between atoms: _212  and  _213
REMARK   93  A    between atoms: _217  and  _218
REMARK   94  A    between atoms: _223  and  _225
REMARK   95  A    between atoms: _225  and  _226
REMARK   96  A    between atoms: _225  and  _228
REMARK   97  A    between atoms: _231  and  _233
REMARK   98  A    between atoms: _233  and  _234
REMARK   99  A    between atoms: _233  and  _236
REMARK  100  A    between atoms: _236  and  _237
REMARK  101  A    between atoms: _242  and  _244
REMARK  102  A    between atoms: _244  and  _245
REMARK  103  A    between atoms: _244  and  _247
REMARK  104  A    between atoms: _247  and  _248
REMARK  105  A    between atoms: _251  and  _253
REMARK  106  A    between atoms: _253  and  _254
REMARK  107  A    between atoms: _253  and  _256
REMARK  108  A    between atoms: _256  and  _257
REMARK  109  A    between atoms: _260  and  _262
REMARK  110  A    between atoms: _262  and  _263
REMARK  111  A    between atoms: _265  and  _267
REMARK  112  A    between atoms: _267  and  _268
REMARK  113  A    between atoms: _267  and  _270
REMARK  114  A    between atoms: _270  and  _271
REMARK  115  A    between atoms: _271  and  _272
REMARK  116  A    between atoms: _272  and  _273
REMARK  117  A    between atoms: _282  and  _284
REMARK  118  A    between atoms: _284  and  _285
REMARK  119  A    between atoms: _284  and  _287
REMARK  120  A    between atoms: _287  and  _288
REMARK  121  A    between atoms: _288  and  _289
REMARK  122  A    between atoms: _289  and  _290
REMARK  123  A    between atoms: _299  and  _301
REMARK  124  A    between atoms: _301  and  _302
REMARK  125  A    between atoms: _301  and  _304
REMARK  126  A    between atoms: _304  and  _305
REMARK  127  A    between atoms: _308  and  _310
REMARK  128  A    between atoms: _310  and  _311
REMARK  129  A    between atoms: _310  and  _313
REMARK  130  A    between atoms: _313  and  _314
REMARK  131  A    between atoms: _317  and  _319
REMARK  132  A    between atoms: _319  and  _320
REMARK  133  A    between atoms: _319  and  _322
REMARK  134  A    between atoms: _322  and  _323
REMARK  135  A    between atoms: _326  and  _328
REMARK  136  A    between atoms: _328  and  _329
REMARK  137  A    between atoms: _328  and  _331
REMARK  138  A    between atoms: _331  and  _332
REMARK  139  A    between atoms: _335  and  _337
REMARK  140  A    between atoms: _337  and  _338
REMARK  141  A    between atoms: _337  and  _340
REMARK  142  A    between atoms: _340  and  _341
REMARK  143  A    between atoms: _344  and  _346
REMARK  144  A    between atoms: _346  and  _347
REMARK  145  A    between atoms: _349  and  _351
REMARK  146  A    between atoms: _351  and  _352
REMARK  147  A    between atoms: _355  and  _357
REMARK  148  A    between atoms: _357  and  _358
REMARK  149  A    between atoms: _357  and  _360
REMARK  150  A    between atoms: _360  and  _361
REMARK  151  A    between atoms: _364  and  _366
REMARK  152  A    between atoms: _366  and  _367
REMARK  153  A    between atoms: _366  and  _369
REMARK  154  A    between atoms: _369  and  _370
REMARK  155  A    between atoms: _373  and  _375
REMARK  156  A    between atoms: _375  and  _376
REMARK  157  A    between atoms: _375  and  _378
REMARK  158  A    between atoms: _378  and  _379
REMARK  159  A    between atoms: _382  and  _384
REMARK  160  A    between atoms: _384  and  _385
REMARK  161  A    between atoms: _384  and  _387
REMARK  162  A    between atoms: _390  and  _392
REMARK  163  A    between atoms: _392  and  _393
REMARK  164  A    between atoms: _392  and  _395
REMARK  165  A    between atoms: _395  and  _396
REMARK  166  A    between atoms: _396  and  _397
REMARK  167  A    between atoms: _397  and  _398
REMARK  168  A    between atoms: _398  and  _399
REMARK  169  A    between atoms: _403  and  _405
REMARK  170  A    between atoms: _405  and  _406
REMARK  171  A    between atoms: _405  and  _408
REMARK  172  A    between atoms: _408  and  _409
REMARK  173  A    between atoms: _409  and  _410
REMARK  174  A    between atoms: _412  and  _414
REMARK  175  A    between atoms: _414  and  _415
REMARK  176  A    between atoms: _414  and  _417
REMARK  177  A    between atoms: _417  and  _418
REMARK  178  A    between atoms: _421  and  _423
REMARK  179  A    between atoms: _423  and  _424
REMARK  180  A    between atoms: _426  and  _428
REMARK  181  A    between atoms: _428  and  _429
REMARK  182  A    between atoms: _431  and  _433
REMARK  183  A    between atoms: _433  and  _434
REMARK  184  A    between atoms: _433  and  _436
REMARK  185  A    between atoms: _436  and  _437
REMARK  186  A    between atoms: _440  and  _442
REMARK  187  A    between atoms: _442  and  _443
REMARK  188  A    between atoms: _445  and  _447
REMARK  189  A    between atoms: _447  and  _448
REMARK  190  A    between atoms: _450  and  _452
REMARK  191  A    between atoms: _452  and  _453
REMARK  192  A    between atoms: _452  and  _455
REMARK  193  A    between atoms: _455  and  _456
REMARK  194  A    between atoms: _462  and  _464
REMARK  195  A    between atoms: _464  and  _465
REMARK  196  A    between atoms: _464  and  _467
REMARK  197  A    between atoms: _467  and  _468
REMARK  198  A    between atoms: _471  and  _473
REMARK  199  A    between atoms: _473  and  _474
REMARK  200  A    between atoms: _473  and  _476
REMARK  201  A    between atoms: _479  and  _481
REMARK  202  A    between atoms: _481  and  _482
REMARK  203  A    between atoms: _481  and  _484
REMARK  204  A    between atoms: _484  and  _485
REMARK  205  A    between atoms: _489  and  _490
REMARK  206  A    between atoms: _495  and  _497
REMARK  207  A    between atoms: _497  and  _498
REMARK  208  A    between atoms: _497  and  _500
REMARK  209  A    between atoms: _500  and  _501
REMARK  210  A    between atoms: _505  and  _506
REMARK  211  A    between atoms: _511  and  _513
REMARK  212  A    between atoms: _513  and  _514
REMARK  213  A    between atoms: _513  and  _516
REMARK  214  A    between atoms: _519  and  _521
REMARK  215  A    between atoms: _521  and  _522
REMARK  216  A    between atoms: _521  and  _524
REMARK  217  A    between atoms: _524  and  _525
REMARK  218  A    between atoms: _530  and  _532
REMARK  219  A    between atoms: _532  and  _533
REMARK  220  A    between atoms: _532  and  _535
REMARK  221  A    between atoms: _535  and  _536
REMARK  222  A    between atoms: _539  and  _541
REMARK  223  A    between atoms: _541  and  _542
REMARK  224  A    between atoms: _541  and  _544
REMARK  225  A    between atoms: _544  and  _545
REMARK  226  A    between atoms: _548  and  _550
REMARK  227  A    between atoms: _550  and  _551
REMARK  228  A    between atoms: _553  and  _555
REMARK  229  A    between atoms: _555  and  _556
REMARK  230  A    between atoms: _555  and  _558
REMARK  231  A    between atoms: _558  and  _559
REMARK  232  A    between atoms: _559  and  _560
REMARK  233  A    between atoms: _560  and  _561
REMARK                            x       y       z     vdW  Elec       q    Type
REMARK                         _______ _______ _______ _____ _____    ______ ____
ROOT
ATOM      1  C   GLY A   5      12.622  28.416   3.203  0.00  0.00    +0.243 C 
ATOM      2  N   ALA A   6      12.899  29.175   4.258  0.00  0.00    -0.297 N 
ATOM      3  H   ALA A   6      13.793  29.707   4.279  0.00  0.00    +0.150 HD
ATOM      4  O   GLY A   5      11.576  27.771   3.099  0.00  0.00    -0.273 OA
ENDROOT
BRANCH   2   5
ATOM      5  CA  ALA A   6      11.983  29.282   5.387  0.00  0.00    +0.149 C 
ATOM      6  CB  ALA A   6      12.761  29.125   6.692  0.00  0.00    +0.031 C 
BRANCH   5   7
ATOM      7  C   ALA A   6      11.225  30.604   5.404  0.00  0.00    +0.241 C 
ATOM      8  O   ALA A   6      11.836  31.667   5.461  0.00  0.00    -0.273 OA
ATOM      9  N   ASP A   7       9.898  30.540   5.350  0.00  0.00    -0.297 N 
ATOM     10  H   ASP A   7       9.434  29.613   5.270  0.00  0.00    +0.150 HD
BRANCH   9  11
ATOM     11  CA  ASP A   7       9.079  31.752   5.401  0.00  0.00    +0.160 C 
BRANCH  11  12
ATOM     12  C   ASP A   7       9.209  32.361   6.793  0.00  0.00    +0.241 C 
ATOM     13  N   ASP A   8       9.274  31.490   7.793  0.00  0.00    -0.297 N 
ATOM     14  H   ASP A   8       9.281  30.472   7.579  0.00  0.00    +0.150 HD
ATOM     15  O   ASP A   7       9.224  33.574   6.961  0.00  0.00    -0.273 OA
BRANCH  13  16
ATOM     16  CA  ASP A   8       9.335  31.922   9.180  0.00  0.00    +0.160 C 
BRANCH  16  17
ATOM     17  C   ASP A   8      10.629  31.553   9.871  0.00  0.00    +0.241 C 
ATOM     18  N   THR A   9      10.807  32.127  11.050  0.00  0.00    -0.295 N 
ATOM     19  H   THR A   9      10.092  32.797  11.398  0.00  0.00    +0.150 HD
ATOM     20  O   ASP A   8      11.433  30.775   9.363  0.00  0.00    -0.273 OA
BRANCH  18  21
ATOM     21  CA  THR A   9      11.966  31.850  11.868  0.00  0.00    +0.176 C 
BRANCH  21  22
ATOM     22  C   THR A   9      11.466  30.916  12.957  0.00  0.00    +0.243 C 
ATOM     23  O   THR A   9      10.486  31.211  13.654  0.00  0.00    -0.273 OA
ATOM     24  N   VAL A  10      12.130  29.774  13.077  0.00  0.00    -0.298 N 
ATOM     25  H   VAL A  10      12.946  29.595  12.457  0.00  0.00    +0.150 HD
BRANCH  24  26
ATOM     26  CA  VAL A  10      11.748  28.767  14.050  0.00  0.00    +0.137 C 
BRANCH  26  27
ATOM     27  CB  VAL A  10      11.257  27.487  13.351  0.00  0.00    +0.026 C 
ATOM     28  CG2 VAL A  10      10.654  26.528  14.377  0.00  0.00    +0.002 C 
ATOM     29  CG1 VAL A  10      10.251  27.849  12.258  0.00  0.00    +0.002 C 
ENDBRANCH  26  27
BRANCH  26  30
ATOM     30  C   VAL A  10      12.943  28.422  14.909  0.00  0.00    +0.227 C 
ATOM     31  O   VAL A  10      13.994  28.023  14.404  0.00  0.00    -0.286 OA
ENDBRANCH  26  30
ENDBRANCH  24  26
ENDBRANCH  21  22
BRANCH  21  32
ATOM     32  CB  THR A   9      12.531  33.138  12.465  0.00  0.00    +0.137 C 
ATOM     33  CG2 THR A   9      13.563  32.828  13.562  0.00  0.00    +0.034 C 
BRANCH  32  34
ATOM     34  OG1 THR A   9      13.148  33.894  11.416  0.00  0.00    -0.382 OA
ATOM     35  HG1 THR A   9      12.473  34.109  10.725  0.00  0.00    +0.210 HD
ENDBRANCH  32  34
ENDBRANCH  21  32
ENDBRANCH  18  21
ENDBRANCH  16  17
BRANCH  16  36
ATOM     36  CB  ASP A   8       8.188  31.290   9.971  0.00  0.00    +0.143 C 
BRANCH  36  37
ATOM     37  CG  ASP A   8       6.844  31.466   9.301  0.00  0.00    +0.367 C 
ATOM     38  OD2 ASP A   8       6.169  30.441   9.061  0.00  0.00    -0.246 OA
ATOM     39  OD1 ASP A   8       6.460  32.621   9.018  0.00  0.00    -0.246 OA
ENDBRANCH  36  37
ENDBRANCH  16  36
ENDBRANCH  13  16
ENDBRANCH  11  12
BRANCH  11  40
ATOM     40  CB  ASP A   7       7.593  31.434   5.211  0.00  0.00    +0.143 C 
BRANCH  40  41
ATOM     41  CG  ASP A   7       7.240  31.023   3.799  0.00  0.00    +0.367 C 
ATOM     42  OD2 ASP A   7       6.066  30.655   3.596  0.00  0.00    -0.246 OA
ATOM     43  OD1 ASP A   7       8.106  31.077   2.902  0.00  0.00    -0.246 OA
ENDBRANCH  40  41
ENDBRANCH  11  40
ENDBRANCH   9  11
ENDBRANCH   5   7
ENDBRANCH   2   5
BRANCH   1  44
ATOM     44  CA  GLY A   5      13.668  28.383   2.106  0.00  0.00    +0.176 C 
BRANCH  44  46
ATOM     45  C   THR A   4      14.911  30.449   2.071  0.00  0.00    +0.243 C 
ATOM     46  N   GLY A   5      14.851  29.169   2.423  0.00  0.00    -0.295 N 
ATOM     47  H   GLY A   5      15.649  28.729   2.925  0.00  0.00    +0.150 HD
ATOM     48  O   THR A   4      13.992  31.020   1.481  0.00  0.00    -0.273 OA
BRANCH  45  49
ATOM     49  CA  THR A   4      16.187  31.207   2.439  0.00  0.00    +0.176 C 
BRANCH  49  52
ATOM     50  C   ASP A   3      16.534  30.292   4.656  0.00  0.00    +0.241 C 
ATOM     51  O   ASP A   3      15.439  30.718   5.018  0.00  0.00    -0.273 OA
ATOM     52  N   THR A   4      16.990  30.467   3.415  0.00  0.00    -0.295 N 
ATOM     53  H   THR A   4      17.915  30.078   3.141  0.00  0.00    +0.150 HD
BRANCH  50  54
ATOM     54  CA  ASP A   3      17.410  29.503   5.628  0.00  0.00    +0.160 C 
BRANCH  54  56
ATOM     55  C   LEU A   2      19.538  30.366   6.439  0.00  0.00    +0.241 C 
ATOM     56  N   ASP A   3      18.220  30.293   6.556  0.00  0.00    -0.297 N 
ATOM     57  H   ASP A   3      17.750  30.810   7.326  0.00  0.00    +0.150 HD
ATOM     58  O   LEU A   2      20.157  29.841   5.512  0.00  0.00    -0.273 OA
BRANCH  55  59
ATOM     59  CA  LEU A   2      20.270  31.144   7.520  0.00  0.00    +0.149 C 
BRANCH  59  62
ATOM     60  C   LEU A   1      20.100  29.468   9.267  0.00  0.00    +0.238 C 
ATOM     61  O   LEU A   1      18.934  29.790   9.496  0.00  0.00    -0.274 OA
ATOM     62  N   LEU A   2      20.844  30.087   8.358  0.00  0.00    -0.297 N 
ATOM     63  H   LEU A   2      21.842  29.820   8.240  0.00  0.00    +0.150 HD
BRANCH  60  64
ATOM     64  CA  LEU A   1      20.764  28.339  10.057  0.00  0.00    +0.145 C 
BRANCH  64  65
ATOM     65  N   LEU A   1      20.571  28.501  11.484  0.00  0.00    -0.238 NA
ATOM     66  H   LEU A   1      19.698  28.137  11.918  0.00  0.00    +0.142 HD
ENDBRANCH  64  65
BRANCH  64  67
ATOM     67  CB  LEU A   1      20.178  26.992   9.631  0.00  0.00    +0.026 C 
BRANCH  67  68
ATOM     68  CG  LEU A   1      20.397  26.473   8.209  0.00  0.00    +0.002 C 
ATOM     69  CD2 LEU A   1      19.716  25.110   8.077  0.00  0.00    +0.000 C 
ATOM     70  CD1 LEU A   1      21.889  26.354   7.909  0.00  0.00    +0.000 C 
ENDBRANCH  67  68
ENDBRANCH  64  67
ENDBRANCH  60  64
ENDBRANCH  59  62
BRANCH  59  71
ATOM     71  CB  LEU A   2      21.368  32.003   6.898  0.00  0.00    +0.029 C 
BRANCH  71  72
ATOM     72  CG  LEU A   2      22.318  32.671   7.895  0.00  0.00    +0.002 C 
ATOM     73  CD2 LEU A   2      21.538  33.461   8.950  0.00  0.00    +0.000 C 
ATOM     74  CD1 LEU A   2      23.249  33.572   7.133  0.00  0.00    +0.000 C 
ENDBRANCH  71  72
ENDBRANCH  59  71
ENDBRANCH  55  59
ENDBRANCH  54  56
BRANCH  54  75
ATOM     75  CB  ASP A   3      16.529  28.564   6.449  0.00  0.00    +0.143 C 
BRANCH  75  76
ATOM     76  CG  ASP A   3      15.976  27.417   5.633  0.00  0.00    +0.367 C 
ATOM     77  OD2 ASP A   3      15.497  26.439   6.240  0.00  0.00    -0.246 OA
ATOM     78  OD1 ASP A   3      16.016  27.500   4.393  0.00  0.00    -0.246 OA
ENDBRANCH  75  76
ENDBRANCH  54  75
ENDBRANCH  50  54
ENDBRANCH  49  52
BRANCH  49  79
ATOM     79  CB  THR A   4      16.966  31.485   1.137  0.00  0.00    +0.137 C 
ATOM     80  CG2 THR A   4      18.203  32.336   1.431  0.00  0.00    +0.034 C 
BRANCH  79  81
ATOM     81  OG1 THR A   4      17.370  30.244   0.545  0.00  0.00    -0.382 OA
ATOM     82  HG1 THR A   4      16.568  29.701   0.340  0.00  0.00    +0.210 HD
ENDBRANCH  79  81
ENDBRANCH  49  79
ENDBRANCH  45  49
ENDBRANCH  44  46
ENDBRANCH   1  44
TORSDOF 35
REMARK  Name = ../refined-set-2016/1ec1/1ec1_pocket.pdb
REMARK  233 active torsions:
REMARK  status: ('A' for Active; 'I' for Inactive)
REMARK    1  A    between atoms: _1  and  _3
REMARK    2  A    between atoms: _3  and  _4
REMARK    3  A    between atoms: _3  and  _6
REMARK    4  A    between atoms: _6  and  _7
REMARK    5  A    between atoms: _7  and  _8
REMARK    6  A    between atoms: _8  and  _9
REMARK    7  A    between atoms: _18  and  _20
REMARK    8  A    between atoms: _20  and  _21
REMARK    9  A    between atoms: _20  and  _23
REMARK   10  A    between atoms: _23  and  _24
REMARK   11  A    between atoms: _27  and  _29
REMARK   12  A    between atoms: _29  and  _30
REMARK   13  A    between atoms: _29  and  _32
REMARK   14  A    between atoms: _32  and  _33
REMARK   15  A    between atoms: _36  and  _38
REMARK   16  A    between atoms: _38  and  _39
REMARK   17  A    between atoms: _38  and  _41
REMARK   18  A    between atoms: _41  and  _42
REMARK   19  A    between atoms: _45  and  _47
REMARK   20  A    between atoms: _47  and  _48
REMARK   21  A    between atoms: _47  and  _50
REMARK   22  A    between atoms: _50  and  _51
REMARK   23  A    between atoms: _54  and  _56
REMARK   24  A    between atoms: _56  and  _57
REMARK   25  A    between atoms: _56  and  _59
REMARK   26  A    between atoms: _59  and  _60
REMARK   27  A    between atoms: _63  and  _65
REMARK   28  A    between atoms: _65  and  _66
REMARK   29  A    between atoms: _68  and  _70
REMARK   30  A    between atoms: _70  and  _71
REMARK   31  A    between atoms: _74  and  _76
REMARK   32  A    between atoms: _76  and  _77
REMARK   33  A    between atoms: _76  and  _79
REMARK   34  A    between atoms: _79  and  _80
REMARK   35  A    between atoms: _83  and  _85
REMARK   36  A    between atoms: _85  and  _86
REMARK   37  A    between atoms: _85  and  _88
REMARK   38  A    between atoms: _88  and  _89
REMARK   39  A    between atoms: _92  and  _94
REMARK   40  A    between atoms: _94  and  _95
REMARK   41  A    between atoms: _94  and  _97
REMARK   42  A    between atoms: _97  and  _98
REMARK   43  A    between atoms: _101  and  _103
REMARK   44  A    between atoms: _103  and  _104
REMARK   45  A    between atoms: _103  and  _106
REMARK   46  A    between atoms: _109  and  _111
REMARK   47  A    between atoms: _111  and  _112
REMARK   48  A    between atoms: _111  and  _114
REMARK   49  A    between atoms: _114  and  _115
REMARK   50  A    between atoms: _115  and  _116
REMARK   51  A    between atoms: _116  and  _117
REMARK   52  A    between atoms: _117  and  _118
REMARK   53  A    between atoms: _122  and  _124
REMARK   54  A    between atoms: _124  and  _125
REMARK   55  A    between atoms: _124  and  _127
REMARK   56  A    between atoms: _127  and  _128
REMARK   57  A    between atoms: _128  and  _129
REMARK   58  A    between atoms: _131  and  _133
REMARK   59  A    between atoms: _133  and  _134
REMARK   60  A    between atoms: _133  and  _136
REMARK   61  A    between atoms: _136  and  _137
REMARK   62  A    between atoms: _140  and  _142
REMARK   63  A    between atoms: _142  and  _143
REMARK   64  A    between atoms: _145  and  _147
REMARK   65  A    between atoms: _147  and  _148
REMARK   66  A    between atoms: _150  and  _152
REMARK   67  A    between atoms: _152  and  _153
REMARK   68  A    between atoms: _152  and  _155
REMARK   69  A    between atoms: _155  and  _156
REMARK   70  A    between atoms: _159  and  _161
REMARK   71  A    between atoms: _161  and  _162
REMARK   72  A    between atoms: _164  and  _166
REMARK   73  A    between atoms: _166  and  _167
REMARK   74  A    between atoms: _169  and  _171
REMARK   75  A    between atoms: _171  and  _172
REMARK   76  A    between atoms: _171  and  _174
REMARK   77  A    between atoms: _174  and  _175
REMARK   78  A    between atoms: _181  and  _183
REMARK   79  A    between atoms: _183  and  _184
REMARK   80  A    between atoms: _183  and  _186
REMARK   81  A    between atoms: _186  and  _187
REMARK   82  A    between atoms: _190  and  _192
REMARK   83  A    between atoms: _192  and  _193
REMARK   84  A    between atoms: _192  and  _195
REMARK   85  A    between atoms: _198  and  _200
REMARK   86  A    between atoms: _200  and  _201
REMARK   87  A    between atoms: _200  and  _203
REMARK   88  A    between atoms: _203  and  _204
REMARK   89  A    between atoms: _207  and  _209
REMARK   90  A    between atoms: _209  and  _210
REMARK   91  A    between atoms: _209  and  _212
REMARK   92  A    between atoms: _212  and  _213
REMARK   93  A    between atoms: _217  and  _218
REMARK   94  A    between atoms: _223  and  _225
REMARK   95  A    between atoms: _225  and  _226
REMARK   96  A    between atoms: _225  and  _228
REMARK   97  A    between atoms: _231  and  _233
REMARK   98  A    between atoms: _233  and  _234
REMARK   99  A    between atoms: _233  and  _236
REMARK  100  A    between atoms: _236  and  _237
REMARK  101  A    between atoms: _242  and  _244
REMARK  102  A    between atoms: _244  and  _245
REMARK  103  A    between atoms: _244  and  _247
REMARK  104  A    between atoms: _247  and  _248
REMARK  105  A    between atoms: _251  and  _253
REMARK  106  A    between atoms: _253  and  _254
REMARK  107  A    between atoms: _253  and  _256
REMARK  108  A    between atoms: _256  and  _257
REMARK  109  A    between atoms: _260  and  _262
REMARK  110  A    between atoms: _262  and  _263
REMARK  111  A    between atoms: _265  and  _267
REMARK  112  A    between atoms: _267  and  _268
REMARK  113  A    between atoms: _267  and  _270
REMARK  114  A    between atoms: _270  and  _271
REMARK  115  A    between atoms: _271  and  _272
REMARK  116  A    between atoms: _272  and  _273
REMARK  117  A    between atoms: _282  and  _284
REMARK  118  A    between atoms: _284  and  _285
REMARK  119  A    between atoms: _284  and  _287
REMARK  120  A    between atoms: _287  and  _288
REMARK  121  A    between atoms: _288  and  _289
REMARK  122  A    between atoms: _289  and  _290
REMARK  123  A    between atoms: _299  and  _301
REMARK  124  A    between atoms: _301  and  _302
REMARK  125  A    between atoms: _301  and  _304
REMARK  126  A    between atoms: _304  and  _305
REMARK  127  A    between atoms: _308  and  _310
REMARK  128  A    between atoms: _310  and  _311
REMARK  129  A    between atoms: _310  and  _313
REMARK  130  A    between atoms: _313  and  _314
REMARK  131  A    between atoms: _317  and  _319
REMARK  132  A    between atoms: _319  and  _320
REMARK  133  A    between atoms: _319  and  _322
REMARK  134  A    between atoms: _322  and  _323
REMARK  135  A    between atoms: _326  and  _328
REMARK  136  A    between atoms: _328  and  _329
REMARK  137  A    between atoms: _328  and  _331
REMARK  138  A    between atoms: _331  and  _332
REMARK  139  A    between atoms: _335  and  _337
REMARK  140  A    between atoms: _337  and  _338
REMARK  141  A    between atoms: _337  and  _340
REMARK  142  A    between atoms: _340  and  _341
REMARK  143  A    between atoms: _344  and  _346
REMARK  144  A    between atoms: _346  and  _347
REMARK  145  A    between atoms: _349  and  _351
REMARK  146  A    between atoms: _351  and  _352
REMARK  147  A    between atoms: _355  and  _357
REMARK  148  A    between atoms: _357  and  _358
REMARK  149  A    between atoms: _357  and  _360
REMARK  150  A    between atoms: _360  and  _361
REMARK  151  A    between atoms: _364  and  _366
REMARK  152  A    between atoms: _366  and  _367
REMARK  153  A    between atoms: _366  and  _369
REMARK  154  A    between atoms: _369  and  _370
REMARK  155  A    between atoms: _373  and  _375
REMARK  156  A    between atoms: _375  and  _376
REMARK  157  A    between atoms: _375  and  _378
REMARK  158  A    between atoms: _378  and  _379
REMARK  159  A    between atoms: _382  and  _384
REMARK  160  A    between atoms: _384  and  _385
REMARK  161  A    between atoms: _384  and  _387
REMARK  162  A    between atoms: _390  and  _392
REMARK  163  A    between atoms: _392  and  _393
REMARK  164  A    between atoms: _392  and  _395
REMARK  165  A    between atoms: _395  and  _396
REMARK  166  A    between atoms: _396  and  _397
REMARK  167  A    between atoms: _397  and  _398
REMARK  168  A    between atoms: _398  and  _399
REMARK  169  A    between atoms: _403  and  _405
REMARK  170  A    between atoms: _405  and  _406
REMARK  171  A    between atoms: _405  and  _408
REMARK  172  A    between atoms: _408  and  _409
REMARK  173  A    between atoms: _409  and  _410
REMARK  174  A    between atoms: _412  and  _414
REMARK  175  A    between atoms: _414  and  _415
REMARK  176  A    between atoms: _414  and  _417
REMARK  177  A    between atoms: _417  and  _418
REMARK  178  A    between atoms: _421  and  _423
REMARK  179  A    between atoms: _423  and  _424
REMARK  180  A    between atoms: _426  and  _428
REMARK  181  A    between atoms: _428  and  _429
REMARK  182  A    between atoms: _431  and  _433
REMARK  183  A    between atoms: _433  and  _434
REMARK  184  A    between atoms: _433  and  _436
REMARK  185  A    between atoms: _436  and  _437
REMARK  186  A    between atoms: _440  and  _442
REMARK  187  A    between atoms: _442  and  _443
REMARK  188  A    between atoms: _445  and  _447
REMARK  189  A    between atoms: _447  and  _448
REMARK  190  A    between atoms: _450  and  _452
REMARK  191  A    between atoms: _452  and  _453
REMARK  192  A    between atoms: _452  and  _455
REMARK  193  A    between atoms: _455  and  _456
REMARK  194  A    between atoms: _462  and  _464
REMARK  195  A    between atoms: _464  and  _465
REMARK  196  A    between atoms: _464  and  _467
REMARK  197  A    between atoms: _467  and  _468
REMARK  198  A    between atoms: _471  and  _473
REMARK  199  A    between atoms: _473  and  _474
REMARK  200  A    between atoms: _473  and  _476
REMARK  201  A    between atoms: _479  and  _481
REMARK  202  A    between atoms: _481  and  _482
REMARK  203  A    between atoms: _481  and  _484
REMARK  204  A    between atoms: _484  and  _485
REMARK  205  A    between atoms: _489  and  _490
REMARK  206  A    between atoms: _495  and  _497
REMARK  207  A    between atoms: _497  and  _498
REMARK  208  A    between atoms: _497  and  _500
REMARK  209  A    between atoms: _500  and  _501
REMARK  210  A    between atoms: _505  and  _506
REMARK  211  A    between atoms: _511  and  _513
REMARK  212  A    between atoms: _513  and  _514
REMARK  213  A    between atoms: _513  and  _516
REMARK  214  A    between atoms: _519  and  _521
REMARK  215  A    between atoms: _521  and  _522
REMARK  216  A    between atoms: _521  and  _524
REMARK  217  A    between atoms: _524  and  _525
REMARK  218  A    between atoms: _530  and  _532
REMARK  219  A    between atoms: _532  and  _533
REMARK  220  A    between atoms: _532  and  _535
REMARK  221  A    between atoms: _535  and  _536
REMARK  222  A    between atoms: _539  and  _541
REMARK  223  A    between atoms: _541  and  _542
REMARK  224  A    between atoms: _541  and  _544
REMARK  225  A    between atoms: _544  and  _545
REMARK  226  A    between atoms: _548  and  _550
REMARK  227  A    between atoms: _550  and  _551
REMARK  228  A    between atoms: _553  and  _555
REMARK  229  A    between atoms: _555  and  _556
REMARK  230  A    between atoms: _555  and  _558
REMARK  231  A    between atoms: _558  and  _559
REMARK  232  A    between atoms: _559  and  _560
REMARK  233  A    between atoms: _560  and  _561
REMARK                            x       y       z     vdW  Elec       q    Type
REMARK                         _______ _______ _______ _____ _____    ______ ____
ROOT
ATOM      1  C   GLY A   5       8.331  20.274   5.707  0.00  0.00    +0.243 C 
ATOM      2  O   GLY A   5       7.329  19.585   5.522  0.00  0.00    -0.273 OA
ATOM      3  N   ILE A   6       9.559  19.851   5.437  0.00  0.00    -0.297 N 
ATOM      4  H   ILE A   6      10.368  20.491   5.567  0.00  0.00    +0.150 HD
ENDROOT
BRANCH   3   5
ATOM      5  CA  ILE A   6       9.778  18.497   4.960  0.00  0.00    +0.149 C 
BRANCH   5   6
ATOM      6  C   ILE A   6       9.477  17.600   6.160  0.00  0.00    +0.241 C 
ATOM      7  O   ILE A   6       9.935  17.869   7.274  0.00  0.00    -0.273 OA
ATOM      8  N   GLY A   7       8.702  16.546   5.946  0.00  0.00    -0.295 N 
ATOM      9  H   GLY A   7       8.323  16.358   4.996  0.00  0.00    +0.150 HD
BRANCH   8  10
ATOM     10  CA  GLY A   7       8.387  15.658   7.048  0.00  0.00    +0.176 C 
BRANCH  10  11
ATOM     11  C   GLY A   7       7.051  15.955   7.701  0.00  0.00    +0.243 C 
ATOM     12  O   GLY A   7       6.578  15.181   8.532  0.00  0.00    -0.273 OA
ATOM     13  N   GLY A   8       6.438  17.077   7.348  0.00  0.00    -0.295 N 
ATOM     14  H   GLY A   8       6.878  17.725   6.664  0.00  0.00    +0.150 HD
BRANCH  13  15
ATOM     15  CA  GLY A   8       5.146  17.388   7.929  0.00  0.00    +0.176 C 
BRANCH  15  16
ATOM     16  C   GLY A   8       5.089  18.628   8.798  0.00  0.00    +0.243 C 
ATOM     17  N   PHE A   9       4.024  18.727   9.586  0.00  0.00    -0.297 N 
ATOM     18  H   PHE A   9       3.317  17.964   9.586  0.00  0.00    +0.150 HD
ATOM     19  O   GLY A   8       5.985  19.470   8.771  0.00  0.00    -0.273 OA
BRANCH  17  20
ATOM     20  CA  PHE A   9       3.827  19.881  10.448  0.00  0.00    +0.153 C 
BRANCH  20  21
ATOM     21  C   PHE A   9       4.208  19.664  11.901  0.00  0.00    +0.241 C 
ATOM     22  N   ILE A  10       4.598  20.750  12.549  0.00  0.00    -0.298 N 
ATOM     23  H   ILE A  10       4.661  21.651  12.033  0.00  0.00    +0.150 HD
ATOM     24  O   PHE A   9       4.154  18.551  12.419  0.00  0.00    -0.273 OA
BRANCH  22  25
ATOM     25  CA  ILE A  10       4.939  20.720  13.954  0.00  0.00    +0.137 C 
BRANCH  25  26
ATOM     26  C   ILE A  10       4.184  21.885  14.578  0.00  0.00    +0.227 C 
ATOM     27  O   ILE A  10       3.908  22.889  13.912  0.00  0.00    -0.286 OA
ENDBRANCH  25  26
BRANCH  25  28
ATOM     28  CB  ILE A  10       6.452  20.909  14.199  0.00  0.00    +0.026 C 
ATOM     29  CG2 ILE A  10       7.231  19.723  13.621  0.00  0.00    +0.002 C 
BRANCH  28  30
ATOM     30  CG1 ILE A  10       6.921  22.224  13.579  0.00  0.00    +0.002 C 
ATOM     31  CD1 ILE A  10       8.276  22.670  14.078  0.00  0.00    +0.000 C 
ENDBRANCH  28  30
ENDBRANCH  25  28
ENDBRANCH  22  25
ENDBRANCH  20  21
BRANCH  20  32
ATOM     32  CB  PHE A   9       2.367  20.331  10.396  0.00  0.00    +0.055 C 
BRANCH  32  33
ATOM     33  CG  PHE A   9       1.953  20.898   9.073  0.00  0.00    -0.020 A 
ATOM     34  CD2 PHE A   9       1.781  22.268   8.916  0.00  0.00    -0.004 A 
ATOM     35  CE2 PHE A   9       1.403  22.807   7.689  0.00  0.00    -0.000 A 
ATOM     36  CZ  PHE A   9       1.192  21.968   6.600  0.00  0.00    -0.000 A 
ATOM     37  CE1 PHE A   9       1.358  20.600   6.745  0.00  0.00    -0.000 A 
ATOM     38  CD1 PHE A   9       1.739  20.068   7.981  0.00  0.00    -0.004 A 
ENDBRANCH  32  33
ENDBRANCH  20  32
ENDBRANCH  17  20
ENDBRANCH  15  16
ENDBRANCH  13  15
ENDBRANCH  10  11
ENDBRANCH   8  10
ENDBRANCH   5   6
BRANCH   5  39
ATOM     39  CB  ILE A   6      11.245  18.278   4.536  0.00  0.00    +0.027 C 
ATOM     40  CG2 ILE A   6      11.531  16.788   4.411  0.00  0.00    +0.002 C 
BRANCH  39  41
ATOM     41  CG1 ILE A   6      11.543  19.037   3.237  0.00  0.00    +0.002 C 
ATOM     42  CD1 ILE A   6      10.752  18.554   2.041  0.00  0.00    +0.000 C 
ENDBRANCH  39  41
ENDBRANCH   5  39
ENDBRANCH   3   5
BRANCH   1  43
ATOM     43  CA  GLY A   5       8.189  21.674   6.252  0.00  0.00    +0.176 C 
BRANCH  43  45
ATOM     44  C   GLY A   4       6.254  22.818   7.138  0.00  0.00    +0.243 C 
ATOM     45  N   GLY A   5       6.918  21.691   6.940  0.00  0.00    -0.295 N 
ATOM     46  H   GLY A   5       6.516  20.797   7.287  0.00  0.00    +0.150 HD
ATOM     47  O   GLY A   4       6.669  23.923   6.783  0.00  0.00    -0.273 OA
BRANCH  44  48
ATOM     48  CA  GLY A   4       4.928  22.662   7.848  0.00  0.00    +0.176 C 
BRANCH  48  51
ATOM     49  C   ILE A   3       4.534  23.914   9.853  0.00  0.00    +0.241 C 
ATOM     50  O   ILE A   3       4.901  22.964  10.546  0.00  0.00    -0.273 OA
ATOM     51  N   GLY A   4       4.509  23.867   8.529  0.00  0.00    -0.295 N 
ATOM     52  H   GLY A   4       4.190  24.692   7.983  0.00  0.00    +0.150 HD
BRANCH  49  53
ATOM     53  CA  ILE A   3       4.067  25.217  10.490  0.00  0.00    +0.149 C 
BRANCH  53  55
ATOM     54  C   MET A   2       1.959  25.250  11.680  0.00  0.00    +0.241 C 
ATOM     55  N   ILE A   3       3.233  24.882  11.634  0.00  0.00    -0.297 N 
ATOM     56  H   ILE A   3       3.641  24.347  12.427  0.00  0.00    +0.150 HD
ATOM     57  O   MET A   2       1.441  25.954  10.814  0.00  0.00    -0.273 OA
BRANCH  54  58
ATOM     58  CA  MET A   2       1.152  24.804  12.898  0.00  0.00    +0.149 C 
BRANCH  58  61
ATOM     59  C   LYS A   1       1.088  26.456  14.669  0.00  0.00    +0.238 C 
ATOM     60  O   LYS A   1       1.940  25.862  15.312  0.00  0.00    -0.274 OA
ATOM     61  N   MET A   2       0.619  26.011  13.513  0.00  0.00    -0.297 N 
ATOM     62  H   MET A   2      -0.144  26.533  13.036  0.00  0.00    +0.150 HD
BRANCH  59  63
ATOM     63  CA  LYS A   1       0.489  27.754  15.178  0.00  0.00    +0.145 C 
BRANCH  63  64
ATOM     64  N   LYS A   1       0.458  27.788  16.630  0.00  0.00    -0.238 NA
ATOM     65  H   LYS A   1       1.134  27.214  17.173  0.00  0.00    +0.142 HD
ENDBRANCH  63  64
BRANCH  63  66
ATOM     66  CB  LYS A   1       1.311  28.929  14.639  0.00  0.00    +0.026 C 
BRANCH  66  67
ATOM     67  CG  LYS A   1       1.412  28.973  13.125  0.00  0.00    -0.000 C 
BRANCH  67  68
ATOM     68  CD  LYS A   1       2.370  30.057  12.650  0.00  0.00    -0.024 C 
BRANCH  68  69
ATOM     69  CE  LYS A   1       2.430  30.102  11.125  0.00  0.00    -0.086 C 
BRANCH  69  70
ATOM     70  NZ  LYS A   1       3.390  31.126  10.611  0.00  0.00    +0.380 N 
ATOM     71  HZ1 LYS A   1       4.345  30.910  10.960  0.00  0.00    -0.089 HD
ATOM     72  HZ2 LYS A   1       3.102  32.068  10.945  0.00  0.00    -0.089 HD
ATOM     73  HZ3 LYS A   1       3.388  31.110   9.571  0.00  0.00    -0.089 HD
ENDBRANCH  69  70
ENDBRANCH  68  69
ENDBRANCH  67  68
ENDBRANCH  66  67
ENDBRANCH  63  66
ENDBRANCH  59  63
ENDBRANCH  58  61
BRANCH  58  74
ATOM     74  CB  MET A   2       0.018  23.875  12.452  0.00  0.00    +0.041 C 
BRANCH  74  75
ATOM     75  CG  MET A   2      -0.719  23.169  13.596  0.00  0.00    +0.060 C 
BRANCH  75  76
ATOM     76  SD  MET A   2       0.263  21.845  14.344  0.00  0.00    -0.139 S 
ATOM     77  CE  MET A   2      -0.336  20.428  13.410  0.00  0.00    +0.069 C 
ENDBRANCH  75  76
ENDBRANCH  74  75
ENDBRANCH  58  74
ENDBRANCH  54  58
ENDBRANCH  53  55
BRANCH  53  78
ATOM     78  CB  ILE A   3       5.309  26.052  10.879  0.00  0.00    +0.027 C 
ATOM     79  CG2 ILE A   3       4.889  27.427  11.345  0.00  0.00    +0.002 C 
BRANCH  78  80
ATOM     80  CG1 ILE A   3       6.104  25.331  11.967  0.00  0.00    +0.002 C 
ATOM     81  CD1 ILE A   3       7.420  25.988  12.280  0.00  0.00    +0.000 C 
ENDBRANCH  78  80
ENDBRANCH  53  78
ENDBRANCH  49  53
ENDBRANCH  48  51
ENDBRANCH  44  48
ENDBRANCH  43  45
ENDBRANCH   1  43
TORSDOF 36
REMARK  Name = ../refined-set-2016/1ec1/1ec1_pocket.pdb
REMARK  233 active torsions:
REMARK  status: ('A' for Active; 'I' for Inactive)
REMARK    1  A    between atoms: _1  and  _3
REMARK    2  A    between atoms: _3  and  _4
REMARK    3  A    between atoms: _3  and  _6
REMARK    4  A    between atoms: _6  and  _7
REMARK    5  A    between atoms: _7  and  _8
REMARK    6  A    between atoms: _8  and  _9
REMARK    7  A    between atoms: _18  and  _20
REMARK    8  A    between atoms: _20  and  _21
REMARK    9  A    between atoms: _20  and  _23
REMARK   10  A    between atoms: _23  and  _24
REMARK   11  A    between atoms: _27  and  _29
REMARK   12  A    between atoms: _29  and  _30
REMARK   13  A    between atoms: _29  and  _32
REMARK   14  A    between atoms: _32  and  _33
REMARK   15  A    between atoms: _36  and  _38
REMARK   16  A    between atoms: _38  and  _39
REMARK   17  A    between atoms: _38  and  _41
REMARK   18  A    between atoms: _41  and  _42
REMARK   19  A    between atoms: _45  and  _47
REMARK   20  A    between atoms: _47  and  _48
REMARK   21  A    between atoms: _47  and  _50
REMARK   22  A    between atoms: _50  and  _51
REMARK   23  A    between atoms: _54  and  _56
REMARK   24  A    between atoms: _56  and  _57
REMARK   25  A    between atoms: _56  and  _59
REMARK   26  A    between atoms: _59  and  _60
REMARK   27  A    between atoms: _63  and  _65
REMARK   28  A    between atoms: _65  and  _66
REMARK   29  A    between atoms: _68  and  _70
REMARK   30  A    between atoms: _70  and  _71
REMARK   31  A    between atoms: _74  and  _76
REMARK   32  A    between atoms: _76  and  _77
REMARK   33  A    between atoms: _76  and  _79
REMARK   34  A    between atoms: _79  and  _80
REMARK   35  A    between atoms: _83  and  _85
REMARK   36  A    between atoms: _85  and  _86
REMARK   37  A    between atoms: _85  and  _88
REMARK   38  A    between atoms: _88  and  _89
REMARK   39  A    between atoms: _92  and  _94
REMARK   40  A    between atoms: _94  and  _95
REMARK   41  A    between atoms: _94  and  _97
REMARK   42  A    between atoms: _97  and  _98
REMARK   43  A    between atoms: _101  and  _103
REMARK   44  A    between atoms: _103  and  _104
REMARK   45  A    between atoms: _103  and  _106
REMARK   46  A    between atoms: _109  and  _111
REMARK   47  A    between atoms: _111  and  _112
REMARK   48  A    between atoms: _111  and  _114
REMARK   49  A    between atoms: _114  and  _115
REMARK   50  A    between atoms: _115  and  _116
REMARK   51  A    between atoms: _116  and  _117
REMARK   52  A    between atoms: _117  and  _118
REMARK   53  A    between atoms: _122  and  _124
REMARK   54  A    between atoms: _124  and  _125
REMARK   55  A    between atoms: _124  and  _127
REMARK   56  A    between atoms: _127  and  _128
REMARK   57  A    between atoms: _128  and  _129
REMARK   58  A    between atoms: _131  and  _133
REMARK   59  A    between atoms: _133  and  _134
REMARK   60  A    between atoms: _133  and  _136
REMARK   61  A    between atoms: _136  and  _137
REMARK   62  A    between atoms: _140  and  _142
REMARK   63  A    between atoms: _142  and  _143
REMARK   64  A    between atoms: _145  and  _147
REMARK   65  A    between atoms: _147  and  _148
REMARK   66  A    between atoms: _150  and  _152
REMARK   67  A    between atoms: _152  and  _153
REMARK   68  A    between atoms: _152  and  _155
REMARK   69  A    between atoms: _155  and  _156
REMARK   70  A    between atoms: _159  and  _161
REMARK   71  A    between atoms: _161  and  _162
REMARK   72  A    between atoms: _164  and  _166
REMARK   73  A    between atoms: _166  and  _167
REMARK   74  A    between atoms: _169  and  _171
REMARK   75  A    between atoms: _171  and  _172
REMARK   76  A    between atoms: _171  and  _174
REMARK   77  A    between atoms: _174  and  _175
REMARK   78  A    between atoms: _181  and  _183
REMARK   79  A    between atoms: _183  and  _184
REMARK   80  A    between atoms: _183  and  _186
REMARK   81  A    between atoms: _186  and  _187
REMARK   82  A    between atoms: _190  and  _192
REMARK   83  A    between atoms: _192  and  _193
REMARK   84  A    between atoms: _192  and  _195
REMARK   85  A    between atoms: _198  and  _200
REMARK   86  A    between atoms: _200  and  _201
REMARK   87  A    between atoms: _200  and  _203
REMARK   88  A    between atoms: _203  and  _204
REMARK   89  A    between atoms: _207  and  _209
REMARK   90  A    between atoms: _209  and  _210
REMARK   91  A    between atoms: _209  and  _212
REMARK   92  A    between atoms: _212  and  _213
REMARK   93  A    between atoms: _217  and  _218
REMARK   94  A    between atoms: _223  and  _225
REMARK   95  A    between atoms: _225  and  _226
REMARK   96  A    between atoms: _225  and  _228
REMARK   97  A    between atoms: _231  and  _233
REMARK   98  A    between atoms: _233  and  _234
REMARK   99  A    between atoms: _233  and  _236
REMARK  100  A    between atoms: _236  and  _237
REMARK  101  A    between atoms: _242  and  _244
REMARK  102  A    between atoms: _244  and  _245
REMARK  103  A    between atoms: _244  and  _247
REMARK  104  A    between atoms: _247  and  _248
REMARK  105  A    between atoms: _251  and  _253
REMARK  106  A    between atoms: _253  and  _254
REMARK  107  A    between atoms: _253  and  _256
REMARK  108  A    between atoms: _256  and  _257
REMARK  109  A    between atoms: _260  and  _262
REMARK  110  A    between atoms: _262  and  _263
REMARK  111  A    between atoms: _265  and  _267
REMARK  112  A    between atoms: _267  and  _268
REMARK  113  A    between atoms: _267  and  _270
REMARK  114  A    between atoms: _270  and  _271
REMARK  115  A    between atoms: _271  and  _272
REMARK  116  A    between atoms: _272  and  _273
REMARK  117  A    between atoms: _282  and  _284
REMARK  118  A    between atoms: _284  and  _285
REMARK  119  A    between atoms: _284  and  _287
REMARK  120  A    between atoms: _287  and  _288
REMARK  121  A    between atoms: _288  and  _289
REMARK  122  A    between atoms: _289  and  _290
REMARK  123  A    between atoms: _299  and  _301
REMARK  124  A    between atoms: _301  and  _302
REMARK  125  A    between atoms: _301  and  _304
REMARK  126  A    between atoms: _304  and  _305
REMARK  127  A    between atoms: _308  and  _310
REMARK  128  A    between atoms: _310  and  _311
REMARK  129  A    between atoms: _310  and  _313
REMARK  130  A    between atoms: _313  and  _314
REMARK  131  A    between atoms: _317  and  _319
REMARK  132  A    between atoms: _319  and  _320
REMARK  133  A    between atoms: _319  and  _322
REMARK  134  A    between atoms: _322  and  _323
REMARK  135  A    between atoms: _326  and  _328
REMARK  136  A    between atoms: _328  and  _329
REMARK  137  A    between atoms: _328  and  _331
REMARK  138  A    between atoms: _331  and  _332
REMARK  139  A    between atoms: _335  and  _337
REMARK  140  A    between atoms: _337  and  _338
REMARK  141  A    between atoms: _337  and  _340
REMARK  142  A    between atoms: _340  and  _341
REMARK  143  A    between atoms: _344  and  _346
REMARK  144  A    between atoms: _346  and  _347
REMARK  145  A    between atoms: _349  and  _351
REMARK  146  A    between atoms: _351  and  _352
REMARK  147  A    between atoms: _355  and  _357
REMARK  148  A    between atoms: _357  and  _358
REMARK  149  A    between atoms: _357  and  _360
REMARK  150  A    between atoms: _360  and  _361
REMARK  151  A    between atoms: _364  and  _366
REMARK  152  A    between atoms: _366  and  _367
REMARK  153  A    between atoms: _366  and  _369
REMARK  154  A    between atoms: _369  and  _370
REMARK  155  A    between atoms: _373  and  _375
REMARK  156  A    between atoms: _375  and  _376
REMARK  157  A    between atoms: _375  and  _378
REMARK  158  A    between atoms: _378  and  _379
REMARK  159  A    between atoms: _382  and  _384
REMARK  160  A    between atoms: _384  and  _385
REMARK  161  A    between atoms: _384  and  _387
REMARK  162  A    between atoms: _390  and  _392
REMARK  163  A    between atoms: _392  and  _393
REMARK  164  A    between atoms: _392  and  _395
REMARK  165  A    between atoms: _395  and  _396
REMARK  166  A    between atoms: _396  and  _397
REMARK  167  A    between atoms: _397  and  _398
REMARK  168  A    between atoms: _398  and  _399
REMARK  169  A    between atoms: _403  and  _405
REMARK  170  A    between atoms: _405  and  _406
REMARK  171  A    between atoms: _405  and  _408
REMARK  172  A    between atoms: _408  and  _409
REMARK  173  A    between atoms: _409  and  _410
REMARK  174  A    between atoms: _412  and  _414
REMARK  175  A    between atoms: _414  and  _415
REMARK  176  A    between atoms: _414  and  _417
REMARK  177  A    between atoms: _417  and  _418
REMARK  178  A    between atoms: _421  and  _423
REMARK  179  A    between atoms: _423  and  _424
REMARK  180  A    between atoms: _426  and  _428
REMARK  181  A    between atoms: _428  and  _429
REMARK  182  A    between atoms: _431  and  _433
REMARK  183  A    between atoms: _433  and  _434
REMARK  184  A    between atoms: _433  and  _436
REMARK  185  A    between atoms: _436  and  _437
REMARK  186  A    between atoms: _440  and  _442
REMARK  187  A    between atoms: _442  and  _443
REMARK  188  A    between atoms: _445  and  _447
REMARK  189  A    between atoms: _447  and  _448
REMARK  190  A    between atoms: _450  and  _452
REMARK  191  A    between atoms: _452  and  _453
REMARK  192  A    between atoms: _452  and  _455
REMARK  193  A    between atoms: _455  and  _456
REMARK  194  A    between atoms: _462  and  _464
REMARK  195  A    between atoms: _464  and  _465
REMARK  196  A    between atoms: _464  and  _467
REMARK  197  A    between atoms: _467  and  _468
REMARK  198  A    between atoms: _471  and  _473
REMARK  199  A    between atoms: _473  and  _474
REMARK  200  A    between atoms: _473  and  _476
REMARK  201  A    between atoms: _479  and  _481
REMARK  202  A    between atoms: _481  and  _482
REMARK  203  A    between atoms: _481  and  _484
REMARK  204  A    between atoms: _484  and  _485
REMARK  205  A    between atoms: _489  and  _490
REMARK  206  A    between atoms: _495  and  _497
REMARK  207  A    between atoms: _497  and  _498
REMARK  208  A    between atoms: _497  and  _500
REMARK  209  A    between atoms: _500  and  _501
REMARK  210  A    between atoms: _505  and  _506
REMARK  211  A    between atoms: _511  and  _513
REMARK  212  A    between atoms: _513  and  _514
REMARK  213  A    between atoms: _513  and  _516
REMARK  214  A    between atoms: _519  and  _521
REMARK  215  A    between atoms: _521  and  _522
REMARK  216  A    between atoms: _521  and  _524
REMARK  217  A    between atoms: _524  and  _525
REMARK  218  A    between atoms: _530  and  _532
REMARK  219  A    between atoms: _532  and  _533
REMARK  220  A    between atoms: _532  and  _535
REMARK  221  A    between atoms: _535  and  _536
REMARK  222  A    between atoms: _539  and  _541
REMARK  223  A    between atoms: _541  and  _542
REMARK  224  A    between atoms: _541  and  _544
REMARK  225  A    between atoms: _544  and  _545
REMARK  226  A    between atoms: _548  and  _550
REMARK  227  A    between atoms: _550  and  _551
REMARK  228  A    between atoms: _553  and  _555
REMARK  229  A    between atoms: _555  and  _556
REMARK  230  A    between atoms: _555  and  _558
REMARK  231  A    between atoms: _558  and  _559
REMARK  232  A    between atoms: _559  and  _560
REMARK  233  A    between atoms: _560  and  _561
REMARK                            x       y       z     vdW  Elec       q    Type
REMARK                         _______ _______ _______ _____ _____    ______ ____
ROOT
ATOM      1  CA  VAL A   1       4.966  25.943  17.538  0.00  0.00    +0.133 C 
ENDROOT
BRANCH   1   2
ATOM      2  CB  VAL A   1       5.841  26.579  16.431  0.00  0.00    +0.023 C 
ATOM      3  CG2 VAL A   1       6.598  25.504  15.681  0.00  0.00    +0.002 C 
ATOM      4  CG1 VAL A   1       4.964  27.371  15.468  0.00  0.00    +0.002 C 
ENDBRANCH   1   2
BRANCH   1   5
ATOM      5  N   VAL A   1       4.028  24.985  16.985  0.00  0.00    -0.239 NA
ATOM      6  H   VAL A   1       3.226  25.329  16.420  0.00  0.00    +0.142 HD
ENDBRANCH   1   5
BRANCH   1   7
ATOM      7  C   VAL A   1       4.188  27.048  18.221  0.00  0.00    +0.224 C 
ATOM      8  O   VAL A   1       2.969  27.147  18.065  0.00  0.00    -0.287 OA
ENDBRANCH   1   7
TORSDOF 3
REMARK  Name = ../refined-set-2016/1ec1/1ec1_pocket.pdb
REMARK  233 active torsions:
REMARK  status: ('A' for Active; 'I' for Inactive)
REMARK    1  A    between atoms: _1  and  _3
REMARK    2  A    between atoms: _3  and  _4
REMARK    3  A    between atoms: _3  and  _6
REMARK    4  A    between atoms: _6  and  _7
REMARK    5  A    between atoms: _7  and  _8
REMARK    6  A    between atoms: _8  and  _9
REMARK    7  A    between atoms: _18  and  _20
REMARK    8  A    between atoms: _20  and  _21
REMARK    9  A    between atoms: _20  and  _23
REMARK   10  A    between atoms: _23  and  _24
REMARK   11  A    between atoms: _27  and  _29
REMARK   12  A    between atoms: _29  and  _30
REMARK   13  A    between atoms: _29  and  _32
REMARK   14  A    between atoms: _32  and  _33
REMARK   15  A    between atoms: _36  and  _38
REMARK   16  A    between atoms: _38  and  _39
REMARK   17  A    between atoms: _38  and  _41
REMARK   18  A    between atoms: _41  and  _42
REMARK   19  A    between atoms: _45  and  _47
REMARK   20  A    between atoms: _47  and  _48
REMARK   21  A    between atoms: _47  and  _50
REMARK   22  A    between atoms: _50  and  _51
REMARK   23  A    between atoms: _54  and  _56
REMARK   24  A    between atoms: _56  and  _57
REMARK   25  A    between atoms: _56  and  _59
REMARK   26  A    between atoms: _59  and  _60
REMARK   27  A    between atoms: _63  and  _65
REMARK   28  A    between atoms: _65  and  _66
REMARK   29  A    between atoms: _68  and  _70
REMARK   30  A    between atoms: _70  and  _71
REMARK   31  A    between atoms: _74  and  _76
REMARK   32  A    between atoms: _76  and  _77
REMARK   33  A    between atoms: _76  and  _79
REMARK   34  A    between atoms: _79  and  _80
REMARK   35  A    between atoms: _83  and  _85
REMARK   36  A    between atoms: _85  and  _86
REMARK   37  A    between atoms: _85  and  _88
REMARK   38  A    between atoms: _88  and  _89
REMARK   39  A    between atoms: _92  and  _94
REMARK   40  A    between atoms: _94  and  _95
REMARK   41  A    between atoms: _94  and  _97
REMARK   42  A    between atoms: _97  and  _98
REMARK   43  A    between atoms: _101  and  _103
REMARK   44  A    between atoms: _103  and  _104
REMARK   45  A    between atoms: _103  and  _106
REMARK   46  A    between atoms: _109  and  _111
REMARK   47  A    between atoms: _111  and  _112
REMARK   48  A    between atoms: _111  and  _114
REMARK   49  A    between atoms: _114  and  _115
REMARK   50  A    between atoms: _115  and  _116
REMARK   51  A    between atoms: _116  and  _117
REMARK   52  A    between atoms: _117  and  _118
REMARK   53  A    between atoms: _122  and  _124
REMARK   54  A    between atoms: _124  and  _125
REMARK   55  A    between atoms: _124  and  _127
REMARK   56  A    between atoms: _127  and  _128
REMARK   57  A    between atoms: _128  and  _129
REMARK   58  A    between atoms: _131  and  _133
REMARK   59  A    between atoms: _133  and  _134
REMARK   60  A    between atoms: _133  and  _136
REMARK   61  A    between atoms: _136  and  _137
REMARK   62  A    between atoms: _140  and  _142
REMARK   63  A    between atoms: _142  and  _143
REMARK   64  A    between atoms: _145  and  _147
REMARK   65  A    between atoms: _147  and  _148
REMARK   66  A    between atoms: _150  and  _152
REMARK   67  A    between atoms: _152  and  _153
REMARK   68  A    between atoms: _152  and  _155
REMARK   69  A    between atoms: _155  and  _156
REMARK   70  A    between atoms: _159  and  _161
REMARK   71  A    between atoms: _161  and  _162
REMARK   72  A    between atoms: _164  and  _166
REMARK   73  A    between atoms: _166  and  _167
REMARK   74  A    between atoms: _169  and  _171
REMARK   75  A    between atoms: _171  and  _172
REMARK   76  A    between atoms: _171  and  _174
REMARK   77  A    between atoms: _174  and  _175
REMARK   78  A    between atoms: _181  and  _183
REMARK   79  A    between atoms: _183  and  _184
REMARK   80  A    between atoms: _183  and  _186
REMARK   81  A    between atoms: _186  and  _187
REMARK   82  A    between atoms: _190  and  _192
REMARK   83  A    between atoms: _192  and  _193
REMARK   84  A    between atoms: _192  and  _195
REMARK   85  A    between atoms: _198  and  _200
REMARK   86  A    between atoms: _200  and  _201
REMARK   87  A    between atoms: _200  and  _203
REMARK   88  A    between atoms: _203  and  _204
REMARK   89  A    between atoms: _207  and  _209
REMARK   90  A    between atoms: _209  and  _210
REMARK   91  A    between atoms: _209  and  _212
REMARK   92  A    between atoms: _212  and  _213
REMARK   93  A    between atoms: _217  and  _218
REMARK   94  A    between atoms: _223  and  _225
REMARK   95  A    between atoms: _225  and  _226
REMARK   96  A    between atoms: _225  and  _228
REMARK   97  A    between atoms: _231  and  _233
REMARK   98  A    between atoms: _233  and  _234
REMARK   99  A    between atoms: _233  and  _236
REMARK  100  A    between atoms: _236  and  _237
REMARK  101  A    between atoms: _242  and  _244
REMARK  102  A    between atoms: _244  and  _245
REMARK  103  A    between atoms: _244  and  _247
REMARK  104  A    between atoms: _247  and  _248
REMARK  105  A    between atoms: _251  and  _253
REMARK  106  A    between atoms: _253  and  _254
REMARK  107  A    between atoms: _253  and  _256
REMARK  108  A    between atoms: _256  and  _257
REMARK  109  A    between atoms: _260  and  _262
REMARK  110  A    between atoms: _262  and  _263
REMARK  111  A    between atoms: _265  and  _267
REMARK  112  A    between atoms: _267  and  _268
REMARK  113  A    between atoms: _267  and  _270
REMARK  114  A    between atoms: _270  and  _271
REMARK  115  A    between atoms: _271  and  _272
REMARK  116  A    between atoms: _272  and  _273
REMARK  117  A    between atoms: _282  and  _284
REMARK  118  A    between atoms: _284  and  _285
REMARK  119  A    between atoms: _284  and  _287
REMARK  120  A    between atoms: _287  and  _288
REMARK  121  A    between atoms: _288  and  _289
REMARK  122  A    between atoms: _289  and  _290
REMARK  123  A    between atoms: _299  and  _301
REMARK  124  A    between atoms: _301  and  _302
REMARK  125  A    between atoms: _301  and  _304
REMARK  126  A    between atoms: _304  and  _305
REMARK  127  A    between atoms: _308  and  _310
REMARK  128  A    between atoms: _310  and  _311
REMARK  129  A    between atoms: _310  and  _313
REMARK  130  A    between atoms: _313  and  _314
REMARK  131  A    between atoms: _317  and  _319
REMARK  132  A    between atoms: _319  and  _320
REMARK  133  A    between atoms: _319  and  _322
REMARK  134  A    between atoms: _322  and  _323
REMARK  135  A    between atoms: _326  and  _328
REMARK  136  A    between atoms: _328  and  _329
REMARK  137  A    between atoms: _328  and  _331
REMARK  138  A    between atoms: _331  and  _332
REMARK  139  A    between atoms: _335  and  _337
REMARK  140  A    between atoms: _337  and  _338
REMARK  141  A    between atoms: _337  and  _340
REMARK  142  A    between atoms: _340  and  _341
REMARK  143  A    between atoms: _344  and  _346
REMARK  144  A    between atoms: _346  and  _347
REMARK  145  A    between atoms: _349  and  _351
REMARK  146  A    between atoms: _351  and  _352
REMARK  147  A    between atoms: _355  and  _357
REMARK  148  A    between atoms: _357  and  _358
REMARK  149  A    between atoms: _357  and  _360
REMARK  150  A    between atoms: _360  and  _361
REMARK  151  A    between atoms: _364  and  _366
REMARK  152  A    between atoms: _366  and  _367
REMARK  153  A    between atoms: _366  and  _369
REMARK  154  A    between atoms: _369  and  _370
REMARK  155  A    between atoms: _373  and  _375
REMARK  156  A    between atoms: _375  and  _376
REMARK  157  A    between atoms: _375  and  _378
REMARK  158  A    between atoms: _378  and  _379
REMARK  159  A    between atoms: _382  and  _384
REMARK  160  A    between atoms: _384  and  _385
REMARK  161  A    between atoms: _384  and  _387
REMARK  162  A    between atoms: _390  and  _392
REMARK  163  A    between atoms: _392  and  _393
REMARK  164  A    between atoms: _392  and  _395
REMARK  165  A    between atoms: _395  and  _396
REMARK  166  A    between atoms: _396  and  _397
REMARK  167  A    between atoms: _397  and  _398
REMARK  168  A    between atoms: _398  and  _399
REMARK  169  A    between atoms: _403  and  _405
REMARK  170  A    between atoms: _405  and  _406
REMARK  171  A    between atoms: _405  and  _408
REMARK  172  A    between atoms: _408  and  _409
REMARK  173  A    between atoms: _409  and  _410
REMARK  174  A    between atoms: _412  and  _414
REMARK  175  A    between atoms: _414  and  _415
REMARK  176  A    between atoms: _414  and  _417
REMARK  177  A    between atoms: _417  and  _418
REMARK  178  A    between atoms: _421  and  _423
REMARK  179  A    between atoms: _423  and  _424
REMARK  180  A    between atoms: _426  and  _428
REMARK  181  A    between atoms: _428  and  _429
REMARK  182  A    between atoms: _431  and  _433
REMARK  183  A    between atoms: _433  and  _434
REMARK  184  A    between atoms: _433  and  _436
REMARK  185  A    between atoms: _436  and  _437
REMARK  186  A    between atoms: _440  and  _442
REMARK  187  A    between atoms: _442  and  _443
REMARK  188  A    between atoms: _445  and  _447
REMARK  189  A    between atoms: _447  and  _448
REMARK  190  A    between atoms: _450  and  _452
REMARK  191  A    between atoms: _452  and  _453
REMARK  192  A    between atoms: _452  and  _455
REMARK  193  A    between atoms: _455  and  _456
REMARK  194  A    between atoms: _462  and  _464
REMARK  195  A    between atoms: _464  and  _465
REMARK  196  A    between atoms: _464  and  _467
REMARK  197  A    between atoms: _467  and  _468
REMARK  198  A    between atoms: _471  and  _473
REMARK  199  A    between atoms: _473  and  _474
REMARK  200  A    between atoms: _473  and  _476
REMARK  201  A    between atoms: _479  and  _481
REMARK  202  A    between atoms: _481  and  _482
REMARK  203  A    between atoms: _481  and  _484
REMARK  204  A    between atoms: _484  and  _485
REMARK  205  A    between atoms: _489  and  _490
REMARK  206  A    between atoms: _495  and  _497
REMARK  207  A    between atoms: _497  and  _498
REMARK  208  A    between atoms: _497  and  _500
REMARK  209  A    between atoms: _500  and  _501
REMARK  210  A    between atoms: _505  and  _506
REMARK  211  A    between atoms: _511  and  _513
REMARK  212  A    between atoms: _513  and  _514
REMARK  213  A    between atoms: _513  and  _516
REMARK  214  A    between atoms: _519  and  _521
REMARK  215  A    between atoms: _521  and  _522
REMARK  216  A    between atoms: _521  and  _524
REMARK  217  A    between atoms: _524  and  _525
REMARK  218  A    between atoms: _530  and  _532
REMARK  219  A    between atoms: _532  and  _533
REMARK  220  A    between atoms: _532  and  _535
REMARK  221  A    between atoms: _535  and  _536
REMARK  222  A    between atoms: _539  and  _541
REMARK  223  A    between atoms: _541  and  _542
REMARK  224  A    between atoms: _541  and  _544
REMARK  225  A    between atoms: _544  and  _545
REMARK  226  A    between atoms: _548  and  _550
REMARK  227  A    between atoms: _550  and  _551
REMARK  228  A    between atoms: _553  and  _555
REMARK  229  A    between atoms: _555  and  _556
REMARK  230  A    between atoms: _555  and  _558
REMARK  231  A    between atoms: _558  and  _559
REMARK  232  A    between atoms: _559  and  _560
REMARK  233  A    between atoms: _560  and  _561
REMARK                            x       y       z     vdW  Elec       q    Type
REMARK                         _______ _______ _______ _____ _____    ______ ____
ROOT
ATOM      1  CA  LEU A   1       8.229  30.624  16.291  0.00  0.00    +0.133 C 
ENDROOT
BRANCH   1   2
ATOM      2  N   LEU A   1       9.008  31.793  15.929  0.00  0.00    -0.239 NA
ATOM      3  H   LEU A   1       9.733  31.716  15.187  0.00  0.00    +0.142 HD
ENDBRANCH   1   2
BRANCH   1   4
ATOM      4  C   LEU A   1       9.141  29.732  17.117  0.00  0.00    +0.224 C 
ATOM      5  O   LEU A   1      10.317  29.557  16.794  0.00  0.00    -0.287 OA
ENDBRANCH   1   4
BRANCH   1   6
ATOM      6  CB  LEU A   1       7.756  29.878  15.041  0.00  0.00    +0.025 C 
BRANCH   6   7
ATOM      7  CG  LEU A   1       7.021  30.736  14.009  0.00  0.00    +0.002 C 
ATOM      8  CD2 LEU A   1       5.730  31.282  14.615  0.00  0.00    +0.000 C 
ATOM      9  CD1 LEU A   1       6.744  29.906  12.766  0.00  0.00    +0.000 C 
ENDBRANCH   6   7
ENDBRANCH   1   6
TORSDOF 4
REMARK  Name = ../refined-set-2016/1ec1/1ec1_pocket.pdb
REMARK  233 active torsions:
REMARK  status: ('A' for Active; 'I' for Inactive)
REMARK    1  A    between atoms: _1  and  _3
REMARK    2  A    between atoms: _3  and  _4
REMARK    3  A    between atoms: _3  and  _6
REMARK    4  A    between atoms: _6  and  _7
REMARK    5  A    between atoms: _7  and  _8
REMARK    6  A    between atoms: _8  and  _9
REMARK    7  A    between atoms: _18  and  _20
REMARK    8  A    between atoms: _20  and  _21
REMARK    9  A    between atoms: _20  and  _23
REMARK   10  A    between atoms: _23  and  _24
REMARK   11  A    between atoms: _27  and  _29
REMARK   12  A    between atoms: _29  and  _30
REMARK   13  A    between atoms: _29  and  _32
REMARK   14  A    between atoms: _32  and  _33
REMARK   15  A    between atoms: _36  and  _38
REMARK   16  A    between atoms: _38  and  _39
REMARK   17  A    between atoms: _38  and  _41
REMARK   18  A    between atoms: _41  and  _42
REMARK   19  A    between atoms: _45  and  _47
REMARK   20  A    between atoms: _47  and  _48
REMARK   21  A    between atoms: _47  and  _50
REMARK   22  A    between atoms: _50  and  _51
REMARK   23  A    between atoms: _54  and  _56
REMARK   24  A    between atoms: _56  and  _57
REMARK   25  A    between atoms: _56  and  _59
REMARK   26  A    between atoms: _59  and  _60
REMARK   27  A    between atoms: _63  and  _65
REMARK   28  A    between atoms: _65  and  _66
REMARK   29  A    between atoms: _68  and  _70
REMARK   30  A    between atoms: _70  and  _71
REMARK   31  A    between atoms: _74  and  _76
REMARK   32  A    between atoms: _76  and  _77
REMARK   33  A    between atoms: _76  and  _79
REMARK   34  A    between atoms: _79  and  _80
REMARK   35  A    between atoms: _83  and  _85
REMARK   36  A    between atoms: _85  and  _86
REMARK   37  A    between atoms: _85  and  _88
REMARK   38  A    between atoms: _88  and  _89
REMARK   39  A    between atoms: _92  and  _94
REMARK   40  A    between atoms: _94  and  _95
REMARK   41  A    between atoms: _94  and  _97
REMARK   42  A    between atoms: _97  and  _98
REMARK   43  A    between atoms: _101  and  _103
REMARK   44  A    between atoms: _103  and  _104
REMARK   45  A    between atoms: _103  and  _106
REMARK   46  A    between atoms: _109  and  _111
REMARK   47  A    between atoms: _111  and  _112
REMARK   48  A    between atoms: _111  and  _114
REMARK   49  A    between atoms: _114  and  _115
REMARK   50  A    between atoms: _115  and  _116
REMARK   51  A    between atoms: _116  and  _117
REMARK   52  A    between atoms: _117  and  _118
REMARK   53  A    between atoms: _122  and  _124
REMARK   54  A    between atoms: _124  and  _125
REMARK   55  A    between atoms: _124  and  _127
REMARK   56  A    between atoms: _127  and  _128
REMARK   57  A    between atoms: _128  and  _129
REMARK   58  A    between atoms: _131  and  _133
REMARK   59  A    between atoms: _133  and  _134
REMARK   60  A    between atoms: _133  and  _136
REMARK   61  A    between atoms: _136  and  _137
REMARK   62  A    between atoms: _140  and  _142
REMARK   63  A    between atoms: _142  and  _143
REMARK   64  A    between atoms: _145  and  _147
REMARK   65  A    between atoms: _147  and  _148
REMARK   66  A    between atoms: _150  and  _152
REMARK   67  A    between atoms: _152  and  _153
REMARK   68  A    between atoms: _152  and  _155
REMARK   69  A    between atoms: _155  and  _156
REMARK   70  A    between atoms: _159  and  _161
REMARK   71  A    between atoms: _161  and  _162
REMARK   72  A    between atoms: _164  and  _166
REMARK   73  A    between atoms: _166  and  _167
REMARK   74  A    between atoms: _169  and  _171
REMARK   75  A    between atoms: _171  and  _172
REMARK   76  A    between atoms: _171  and  _174
REMARK   77  A    between atoms: _174  and  _175
REMARK   78  A    between atoms: _181  and  _183
REMARK   79  A    between atoms: _183  and  _184
REMARK   80  A    between atoms: _183  and  _186
REMARK   81  A    between atoms: _186  and  _187
REMARK   82  A    between atoms: _190  and  _192
REMARK   83  A    between atoms: _192  and  _193
REMARK   84  A    between atoms: _192  and  _195
REMARK   85  A    between atoms: _198  and  _200
REMARK   86  A    between atoms: _200  and  _201
REMARK   87  A    between atoms: _200  and  _203
REMARK   88  A    between atoms: _203  and  _204
REMARK   89  A    between atoms: _207  and  _209
REMARK   90  A    between atoms: _209  and  _210
REMARK   91  A    between atoms: _209  and  _212
REMARK   92  A    between atoms: _212  and  _213
REMARK   93  A    between atoms: _217  and  _218
REMARK   94  A    between atoms: _223  and  _225
REMARK   95  A    between atoms: _225  and  _226
REMARK   96  A    between atoms: _225  and  _228
REMARK   97  A    between atoms: _231  and  _233
REMARK   98  A    between atoms: _233  and  _234
REMARK   99  A    between atoms: _233  and  _236
REMARK  100  A    between atoms: _236  and  _237
REMARK  101  A    between atoms: _242  and  _244
REMARK  102  A    between atoms: _244  and  _245
REMARK  103  A    between atoms: _244  and  _247
REMARK  104  A    between atoms: _247  and  _248
REMARK  105  A    between atoms: _251  and  _253
REMARK  106  A    between atoms: _253  and  _254
REMARK  107  A    between atoms: _253  and  _256
REMARK  108  A    between atoms: _256  and  _257
REMARK  109  A    between atoms: _260  and  _262
REMARK  110  A    between atoms: _262  and  _263
REMARK  111  A    between atoms: _265  and  _267
REMARK  112  A    between atoms: _267  and  _268
REMARK  113  A    between atoms: _267  and  _270
REMARK  114  A    between atoms: _270  and  _271
REMARK  115  A    between atoms: _271  and  _272
REMARK  116  A    between atoms: _272  and  _273
REMARK  117  A    between atoms: _282  and  _284
REMARK  118  A    between atoms: _284  and  _285
REMARK  119  A    between atoms: _284  and  _287
REMARK  120  A    between atoms: _287  and  _288
REMARK  121  A    between atoms: _288  and  _289
REMARK  122  A    between atoms: _289  and  _290
REMARK  123  A    between atoms: _299  and  _301
REMARK  124  A    between atoms: _301  and  _302
REMARK  125  A    between atoms: _301  and  _304
REMARK  126  A    between atoms: _304  and  _305
REMARK  127  A    between atoms: _308  and  _310
REMARK  128  A    between atoms: _310  and  _311
REMARK  129  A    between atoms: _310  and  _313
REMARK  130  A    between atoms: _313  and  _314
REMARK  131  A    between atoms: _317  and  _319
REMARK  132  A    between atoms: _319  and  _320
REMARK  133  A    between atoms: _319  and  _322
REMARK  134  A    between atoms: _322  and  _323
REMARK  135  A    between atoms: _326  and  _328
REMARK  136  A    between atoms: _328  and  _329
REMARK  137  A    between atoms: _328  and  _331
REMARK  138  A    between atoms: _331  and  _332
REMARK  139  A    between atoms: _335  and  _337
REMARK  140  A    between atoms: _337  and  _338
REMARK  141  A    between atoms: _337  and  _340
REMARK  142  A    between atoms: _340  and  _341
REMARK  143  A    between atoms: _344  and  _346
REMARK  144  A    between atoms: _346  and  _347
REMARK  145  A    between atoms: _349  and  _351
REMARK  146  A    between atoms: _351  and  _352
REMARK  147  A    between atoms: _355  and  _357
REMARK  148  A    between atoms: _357  and  _358
REMARK  149  A    between atoms: _357  and  _360
REMARK  150  A    between atoms: _360  and  _361
REMARK  151  A    between atoms: _364  and  _366
REMARK  152  A    between atoms: _366  and  _367
REMARK  153  A    between atoms: _366  and  _369
REMARK  154  A    between atoms: _369  and  _370
REMARK  155  A    between atoms: _373  and  _375
REMARK  156  A    between atoms: _375  and  _376
REMARK  157  A    between atoms: _375  and  _378
REMARK  158  A    between atoms: _378  and  _379
REMARK  159  A    between atoms: _382  and  _384
REMARK  160  A    between atoms: _384  and  _385
REMARK  161  A    between atoms: _384  and  _387
REMARK  162  A    between atoms: _390  and  _392
REMARK  163  A    between atoms: _392  and  _393
REMARK  164  A    between atoms: _392  and  _395
REMARK  165  A    between atoms: _395  and  _396
REMARK  166  A    between atoms: _396  and  _397
REMARK  167  A    between atoms: _397  and  _398
REMARK  168  A    between atoms: _398  and  _399
REMARK  169  A    between atoms: _403  and  _405
REMARK  170  A    between atoms: _405  and  _406
REMARK  171  A    between atoms: _405  and  _408
REMARK  172  A    between atoms: _408  and  _409
REMARK  173  A    between atoms: _409  and  _410
REMARK  174  A    between atoms: _412  and  _414
REMARK  175  A    between atoms: _414  and  _415
REMARK  176  A    between atoms: _414  and  _417
REMARK  177  A    between atoms: _417  and  _418
REMARK  178  A    between atoms: _421  and  _423
REMARK  179  A    between atoms: _423  and  _424
REMARK  180  A    between atoms: _426  and  _428
REMARK  181  A    between atoms: _428  and  _429
REMARK  182  A    between atoms: _431  and  _433
REMARK  183  A    between atoms: _433  and  _434
REMARK  184  A    between atoms: _433  and  _436
REMARK  185  A    between atoms: _436  and  _437
REMARK  186  A    between atoms: _440  and  _442
REMARK  187  A    between atoms: _442  and  _443
REMARK  188  A    between atoms: _445  and  _447
REMARK  189  A    between atoms: _447  and  _448
REMARK  190  A    between atoms: _450  and  _452
REMARK  191  A    between atoms: _452  and  _453
REMARK  192  A    between atoms: _452  and  _455
REMARK  193  A    between atoms: _455  and  _456
REMARK  194  A    between atoms: _462  and  _464
REMARK  195  A    between atoms: _464  and  _465
REMARK  196  A    between atoms: _464  and  _467
REMARK  197  A    between atoms: _467  and  _468
REMARK  198  A    between atoms: _471  and  _473
REMARK  199  A    between atoms: _473  and  _474
REMARK  200  A    between atoms: _473  and  _476
REMARK  201  A    between atoms: _479  and  _481
REMARK  202  A    between atoms: _481  and  _482
REMARK  203  A    between atoms: _481  and  _484
REMARK  204  A    between atoms: _484  and  _485
REMARK  205  A    between atoms: _489  and  _490
REMARK  206  A    between atoms: _495  and  _497
REMARK  207  A    between atoms: _497  and  _498
REMARK  208  A    between atoms: _497  and  _500
REMARK  209  A    between atoms: _500  and  _501
REMARK  210  A    between atoms: _505  and  _506
REMARK  211  A    between atoms: _511  and  _513
REMARK  212  A    between atoms: _513  and  _514
REMARK  213  A    between atoms: _513  and  _516
REMARK  214  A    between atoms: _519  and  _521
REMARK  215  A    between atoms: _521  and  _522
REMARK  216  A    between atoms: _521  and  _524
REMARK  217  A    between atoms: _524  and  _525
REMARK  218  A    between atoms: _530  and  _532
REMARK  219  A    between atoms: _532  and  _533
REMARK  220  A    between atoms: _532  and  _535
REMARK  221  A    between atoms: _535  and  _536
REMARK  222  A    between atoms: _539  and  _541
REMARK  223  A    between atoms: _541  and  _542
REMARK  224  A    between atoms: _541  and  _544
REMARK  225  A    between atoms: _544  and  _545
REMARK  226  A    between atoms: _548  and  _550
REMARK  227  A    between atoms: _550  and  _551
REMARK  228  A    between atoms: _553  and  _555
REMARK  229  A    between atoms: _555  and  _556
REMARK  230  A    between atoms: _555  and  _558
REMARK  231  A    between atoms: _558  and  _559
REMARK  232  A    between atoms: _559  and  _560
REMARK  233  A    between atoms: _560  and  _561
REMARK                            x       y       z     vdW  Elec       q    Type
REMARK                         _______ _______ _______ _____ _____    ______ ____
ROOT
ATOM      1  CA  ILE A   5      16.061  28.425  11.626  0.00  0.00    +0.149 C 
ENDROOT
BRANCH   1   3
ATOM      2  C   ASN A   4      17.379  27.426  13.383  0.00  0.00    +0.241 C 
ATOM      3  N   ILE A   5      16.216  27.909  12.971  0.00  0.00    -0.297 N 
ATOM      4  H   ILE A   5      15.404  27.918  13.621  0.00  0.00    +0.150 HD
ATOM      5  O   ASN A   4      18.382  27.394  12.668  0.00  0.00    -0.273 OA
BRANCH   2   6
ATOM      6  CA  ASN A   4      17.401  26.876  14.802  0.00  0.00    +0.158 C 
BRANCH   6   8
ATOM      7  C   VAL A   3      17.144  24.529  14.324  0.00  0.00    +0.241 C 
ATOM      8  N   ASN A   4      17.915  25.518  14.758  0.00  0.00    -0.297 N 
ATOM      9  H   ASN A   4      18.888  25.321  15.067  0.00  0.00    +0.150 HD
ATOM     10  O   VAL A   3      15.968  24.705  13.976  0.00  0.00    -0.273 OA
BRANCH   7  11
ATOM     11  CA  VAL A   3      17.765  23.133  14.299  0.00  0.00    +0.149 C 
BRANCH  11  14
ATOM     12  C   PRO A   2      16.957  20.961  15.010  0.00  0.00    +0.241 C 
ATOM     13  O   PRO A   2      18.070  20.629  15.405  0.00  0.00    -0.273 OA
ATOM     14  N   VAL A   3      16.711  22.146  14.467  0.00  0.00    -0.297 N 
ATOM     15  H   VAL A   3      15.745  22.373  14.155  0.00  0.00    +0.150 HD
BRANCH  12  19
ATOM     16  C   THR A   1      13.938  21.444  15.785  0.00  0.00    +0.244 C 
ATOM     17  O   THR A   1      14.530  21.716  16.825  0.00  0.00    -0.273 OA
ATOM     18  N   PRO A   2      14.463  20.612  14.878  0.00  0.00    -0.272 N 
ATOM     19  CA  PRO A   2      15.777  20.009  15.127  0.00  0.00    +0.152 C 
ATOM     20  CB  PRO A   2      15.839  18.881  14.102  0.00  0.00    +0.031 C 
ATOM     21  CG  PRO A   2      14.986  19.392  12.986  0.00  0.00    +0.024 C 
ATOM     22  CD  PRO A   2      13.819  20.011  13.699  0.00  0.00    +0.094 C 
BRANCH  16  23
ATOM     23  CA  THR A   1      12.562  22.045  15.485  0.00  0.00    +0.172 C 
BRANCH  23  24
ATOM     24  CB  THR A   1      12.756  23.463  14.911  0.00  0.00    +0.135 C 
ATOM     25  CG2 THR A   1      13.477  24.353  15.925  0.00  0.00    +0.034 C 
BRANCH  24  26
ATOM     26  OG1 THR A   1      13.532  23.383  13.704  0.00  0.00    -0.383 OA
ATOM     27  HG1 THR A   1      14.414  22.983  13.906  0.00  0.00    +0.210 HD
ENDBRANCH  24  26
ENDBRANCH  23  24
BRANCH  23  28
ATOM     28  N   THR A   1      11.809  22.063  16.732  0.00  0.00    -0.236 NA
ATOM     29  H   THR A   1      11.788  22.932  17.303  0.00  0.00    +0.142 HD
ENDBRANCH  23  28
ENDBRANCH  16  23
ENDBRANCH  12  19
ENDBRANCH  11  14
BRANCH  11  30
ATOM     30  CB  VAL A   3      18.504  22.906  12.954  0.00  0.00    +0.027 C 
ATOM     31  CG2 VAL A   3      19.667  23.875  12.814  0.00  0.00    +0.002 C 
ATOM     32  CG1 VAL A   3      17.539  23.068  11.804  0.00  0.00    +0.002 C 
ENDBRANCH  11  30
ENDBRANCH   7  11
ENDBRANCH   6   8
BRANCH   6  33
ATOM     33  CB  ASN A   4      18.254  27.742  15.730  0.00  0.00    +0.114 C 
BRANCH  33  34
ATOM     34  CG  ASN A   4      18.067  27.367  17.193  0.00  0.00    +0.222 C 
ATOM     35  ND2 ASN A   4      19.166  27.199  17.917  0.00  0.00    -0.329 N 
ATOM     36 HD21 ASN A   4      19.092  26.941  18.922  0.00  0.00    +0.145 HD
ATOM     37 HD22 ASN A   4      20.101  27.325  17.480  0.00  0.00    +0.145 HD
ATOM     38  OD1 ASN A   4      16.938  27.230  17.660  0.00  0.00    -0.275 OA
ENDBRANCH  33  34
ENDBRANCH   6  33
ENDBRANCH   2   6
ENDBRANCH   1   3
BRANCH   1  39
ATOM     39  C   ILE A   5      15.760  29.913  11.548  0.00  0.00    +0.241 C 
ATOM     40  O   ILE A   5      14.791  30.385  12.134  0.00  0.00    -0.273 OA
ATOM     41  N   ILE A   6      16.602  30.643  10.821  0.00  0.00    -0.297 N 
ATOM     42  H   ILE A   6      17.425  30.180  10.386  0.00  0.00    +0.150 HD
BRANCH  41  43
ATOM     43  CA  ILE A   6      16.404  32.073  10.617  0.00  0.00    +0.149 C 
BRANCH  43  44
ATOM     44  C   ILE A   6      15.779  32.171   9.234  0.00  0.00    +0.241 C 
ATOM     45  N   GLY A   7      14.478  32.447   9.208  0.00  0.00    -0.295 N 
ATOM     46  H   GLY A   7      13.977  32.600  10.106  0.00  0.00    +0.150 HD
ATOM     47  O   ILE A   6      16.463  31.979   8.225  0.00  0.00    -0.273 OA
BRANCH  45  48
ATOM     48  CA  GLY A   7      13.738  32.541   7.965  0.00  0.00    +0.176 C 
BRANCH  48  49
ATOM     49  C   GLY A   7      13.761  33.906   7.310  0.00  0.00    +0.243 C 
ATOM     50  O   GLY A   7      14.347  34.852   7.840  0.00  0.00    -0.273 OA
ATOM     51  N   ARG A   8      13.105  33.998   6.155  0.00  0.00    -0.298 N 
ATOM     52  H   ARG A   8      12.613  33.156   5.794  0.00  0.00    +0.150 HD
BRANCH  51  53
ATOM     53  CA  ARG A   8      13.047  35.227   5.376  0.00  0.00    +0.137 C 
BRANCH  53  54
ATOM     54  C   ARG A   8      12.513  36.451   6.106  0.00  0.00    +0.227 C 
ATOM     55  O   ARG A   8      12.895  37.576   5.777  0.00  0.00    -0.286 OA
ENDBRANCH  53  54
BRANCH  53  56
ATOM     56  CB  ARG A   8      12.215  35.014   4.105  0.00  0.00    +0.031 C 
BRANCH  56  57
ATOM     57  CG  ARG A   8      12.811  33.994   3.153  0.00  0.00    +0.045 C 
BRANCH  57  58
ATOM     58  CD  ARG A   8      12.085  33.952   1.817  0.00  0.00    +0.174 C 
BRANCH  58  59
ATOM     59  NE  ARG A   8      10.695  33.525   1.946  0.00  0.00    -0.265 N 
ATOM     60  HE  ARG A   8      10.507  32.504   2.016  0.00  0.00    +0.259 HD
ATOM     61  CZ  ARG A   8       9.652  34.349   1.980  0.00  0.00    +0.342 C 
ATOM     62  NH2 ARG A   8       8.429  33.855   2.115  0.00  0.00    -0.292 N 
ATOM     63 HH21 ARG A   8       8.289  32.827   2.194  0.00  0.00    +0.255 HD
ATOM     64 HH22 ARG A   8       7.610  34.495   2.142  0.00  0.00    +0.255 HD
ATOM     65  NH1 ARG A   8       9.829  35.663   1.889  0.00  0.00    -0.292 N 
ATOM     66 HH11 ARG A   8       9.008  36.301   1.916  0.00  0.00    +0.255 HD
ATOM     67 HH12 ARG A   8      10.788  36.053   1.790  0.00  0.00    +0.255 HD
ENDBRANCH  58  59
ENDBRANCH  57  58
ENDBRANCH  56  57
ENDBRANCH  53  56
ENDBRANCH  51  53
ENDBRANCH  48  49
ENDBRANCH  45  48
ENDBRANCH  43  44
BRANCH  43  68
ATOM     68  CB  ILE A   6      17.729  32.862  10.607  0.00  0.00    +0.027 C 
ATOM     69  CG2 ILE A   6      17.448  34.328  10.303  0.00  0.00    +0.002 C 
BRANCH  68  70
ATOM     70  CG1 ILE A   6      18.440  32.728  11.955  0.00  0.00    +0.002 C 
ATOM     71  CD1 ILE A   6      17.648  33.262  13.139  0.00  0.00    +0.000 C 
ENDBRANCH  68  70
ENDBRANCH  43  68
ENDBRANCH  41  43
ENDBRANCH   1  39
BRANCH   1  72
ATOM     72  CB  ILE A   5      14.941  27.657  10.903  0.00  0.00    +0.027 C 
ATOM     73  CG2 ILE A   5      14.713  28.237   9.504  0.00  0.00    +0.002 C 
BRANCH  72  74
ATOM     74  CG1 ILE A   5      15.300  26.170  10.859  0.00  0.00    +0.002 C 
ATOM     75  CD1 ILE A   5      14.152  25.284  10.456  0.00  0.00    +0.000 C 
ENDBRANCH  72  74
ENDBRANCH   1  72
TORSDOF 28
REMARK  Name = ../refined-set-2016/1ec1/1ec1_pocket.pdb
REMARK  233 active torsions:
REMARK  status: ('A' for Active; 'I' for Inactive)
REMARK    1  A    between atoms: _1  and  _3
REMARK    2  A    between atoms: _3  and  _4
REMARK    3  A    between atoms: _3  and  _6
REMARK    4  A    between atoms: _6  and  _7
REMARK    5  A    between atoms: _7  and  _8
REMARK    6  A    between atoms: _8  and  _9
REMARK    7  A    between atoms: _18  and  _20
REMARK    8  A    between atoms: _20  and  _21
REMARK    9  A    between atoms: _20  and  _23
REMARK   10  A    between atoms: _23  and  _24
REMARK   11  A    between atoms: _27  and  _29
REMARK   12  A    between atoms: _29  and  _30
REMARK   13  A    between atoms: _29  and  _32
REMARK   14  A    between atoms: _32  and  _33
REMARK   15  A    between atoms: _36  and  _38
REMARK   16  A    between atoms: _38  and  _39
REMARK   17  A    between atoms: _38  and  _41
REMARK   18  A    between atoms: _41  and  _42
REMARK   19  A    between atoms: _45  and  _47
REMARK   20  A    between atoms: _47  and  _48
REMARK   21  A    between atoms: _47  and  _50
REMARK   22  A    between atoms: _50  and  _51
REMARK   23  A    between atoms: _54  and  _56
REMARK   24  A    between atoms: _56  and  _57
REMARK   25  A    between atoms: _56  and  _59
REMARK   26  A    between atoms: _59  and  _60
REMARK   27  A    between atoms: _63  and  _65
REMARK   28  A    between atoms: _65  and  _66
REMARK   29  A    between atoms: _68  and  _70
REMARK   30  A    between atoms: _70  and  _71
REMARK   31  A    between atoms: _74  and  _76
REMARK   32  A    between atoms: _76  and  _77
REMARK   33  A    between atoms: _76  and  _79
REMARK   34  A    between atoms: _79  and  _80
REMARK   35  A    between atoms: _83  and  _85
REMARK   36  A    between atoms: _85  and  _86
REMARK   37  A    between atoms: _85  and  _88
REMARK   38  A    between atoms: _88  and  _89
REMARK   39  A    between atoms: _92  and  _94
REMARK   40  A    between atoms: _94  and  _95
REMARK   41  A    between atoms: _94  and  _97
REMARK   42  A    between atoms: _97  and  _98
REMARK   43  A    between atoms: _101  and  _103
REMARK   44  A    between atoms: _103  and  _104
REMARK   45  A    between atoms: _103  and  _106
REMARK   46  A    between atoms: _109  and  _111
REMARK   47  A    between atoms: _111  and  _112
REMARK   48  A    between atoms: _111  and  _114
REMARK   49  A    between atoms: _114  and  _115
REMARK   50  A    between atoms: _115  and  _116
REMARK   51  A    between atoms: _116  and  _117
REMARK   52  A    between atoms: _117  and  _118
REMARK   53  A    between atoms: _122  and  _124
REMARK   54  A    between atoms: _124  and  _125
REMARK   55  A    between atoms: _124  and  _127
REMARK   56  A    between atoms: _127  and  _128
REMARK   57  A    between atoms: _128  and  _129
REMARK   58  A    between atoms: _131  and  _133
REMARK   59  A    between atoms: _133  and  _134
REMARK   60  A    between atoms: _133  and  _136
REMARK   61  A    between atoms: _136  and  _137
REMARK   62  A    between atoms: _140  and  _142
REMARK   63  A    between atoms: _142  and  _143
REMARK   64  A    between atoms: _145  and  _147
REMARK   65  A    between atoms: _147  and  _148
REMARK   66  A    between atoms: _150  and  _152
REMARK   67  A    between atoms: _152  and  _153
REMARK   68  A    between atoms: _152  and  _155
REMARK   69  A    between atoms: _155  and  _156
REMARK   70  A    between atoms: _159  and  _161
REMARK   71  A    between atoms: _161  and  _162
REMARK   72  A    between atoms: _164  and  _166
REMARK   73  A    between atoms: _166  and  _167
REMARK   74  A    between atoms: _169  and  _171
REMARK   75  A    between atoms: _171  and  _172
REMARK   76  A    between atoms: _171  and  _174
REMARK   77  A    between atoms: _174  and  _175
REMARK   78  A    between atoms: _181  and  _183
REMARK   79  A    between atoms: _183  and  _184
REMARK   80  A    between atoms: _183  and  _186
REMARK   81  A    between atoms: _186  and  _187
REMARK   82  A    between atoms: _190  and  _192
REMARK   83  A    between atoms: _192  and  _193
REMARK   84  A    between atoms: _192  and  _195
REMARK   85  A    between atoms: _198  and  _200
REMARK   86  A    between atoms: _200  and  _201
REMARK   87  A    between atoms: _200  and  _203
REMARK   88  A    between atoms: _203  and  _204
REMARK   89  A    between atoms: _207  and  _209
REMARK   90  A    between atoms: _209  and  _210
REMARK   91  A    between atoms: _209  and  _212
REMARK   92  A    between atoms: _212  and  _213
REMARK   93  A    between atoms: _217  and  _218
REMARK   94  A    between atoms: _223  and  _225
REMARK   95  A    between atoms: _225  and  _226
REMARK   96  A    between atoms: _225  and  _228
REMARK   97  A    between atoms: _231  and  _233
REMARK   98  A    between atoms: _233  and  _234
REMARK   99  A    between atoms: _233  and  _236
REMARK  100  A    between atoms: _236  and  _237
REMARK  101  A    between atoms: _242  and  _244
REMARK  102  A    between atoms: _244  and  _245
REMARK  103  A    between atoms: _244  and  _247
REMARK  104  A    between atoms: _247  and  _248
REMARK  105  A    between atoms: _251  and  _253
REMARK  106  A    between atoms: _253  and  _254
REMARK  107  A    between atoms: _253  and  _256
REMARK  108  A    between atoms: _256  and  _257
REMARK  109  A    between atoms: _260  and  _262
REMARK  110  A    between atoms: _262  and  _263
REMARK  111  A    between atoms: _265  and  _267
REMARK  112  A    between atoms: _267  and  _268
REMARK  113  A    between atoms: _267  and  _270
REMARK  114  A    between atoms: _270  and  _271
REMARK  115  A    between atoms: _271  and  _272
REMARK  116  A    between atoms: _272  and  _273
REMARK  117  A    between atoms: _282  and  _284
REMARK  118  A    between atoms: _284  and  _285
REMARK  119  A    between atoms: _284  and  _287
REMARK  120  A    between atoms: _287  and  _288
REMARK  121  A    between atoms: _288  and  _289
REMARK  122  A    between atoms: _289  and  _290
REMARK  123  A    between atoms: _299  and  _301
REMARK  124  A    between atoms: _301  and  _302
REMARK  125  A    between atoms: _301  and  _304
REMARK  126  A    between atoms: _304  and  _305
REMARK  127  A    between atoms: _308  and  _310
REMARK  128  A    between atoms: _310  and  _311
REMARK  129  A    between atoms: _310  and  _313
REMARK  130  A    between atoms: _313  and  _314
REMARK  131  A    between atoms: _317  and  _319
REMARK  132  A    between atoms: _319  and  _320
REMARK  133  A    between atoms: _319  and  _322
REMARK  134  A    between atoms: _322  and  _323
REMARK  135  A    between atoms: _326  and  _328
REMARK  136  A    between atoms: _328  and  _329
REMARK  137  A    between atoms: _328  and  _331
REMARK  138  A    between atoms: _331  and  _332
REMARK  139  A    between atoms: _335  and  _337
REMARK  140  A    between atoms: _337  and  _338
REMARK  141  A    between atoms: _337  and  _340
REMARK  142  A    between atoms: _340  and  _341
REMARK  143  A    between atoms: _344  and  _346
REMARK  144  A    between atoms: _346  and  _347
REMARK  145  A    between atoms: _349  and  _351
REMARK  146  A    between atoms: _351  and  _352
REMARK  147  A    between atoms: _355  and  _357
REMARK  148  A    between atoms: _357  and  _358
REMARK  149  A    between atoms: _357  and  _360
REMARK  150  A    between atoms: _360  and  _361
REMARK  151  A    between atoms: _364  and  _366
REMARK  152  A    between atoms: _366  and  _367
REMARK  153  A    between atoms: _366  and  _369
REMARK  154  A    between atoms: _369  and  _370
REMARK  155  A    between atoms: _373  and  _375
REMARK  156  A    between atoms: _375  and  _376
REMARK  157  A    between atoms: _375  and  _378
REMARK  158  A    between atoms: _378  and  _379
REMARK  159  A    between atoms: _382  and  _384
REMARK  160  A    between atoms: _384  and  _385
REMARK  161  A    between atoms: _384  and  _387
REMARK  162  A    between atoms: _390  and  _392
REMARK  163  A    between atoms: _392  and  _393
REMARK  164  A    between atoms: _392  and  _395
REMARK  165  A    between atoms: _395  and  _396
REMARK  166  A    between atoms: _396  and  _397
REMARK  167  A    between atoms: _397  and  _398
REMARK  168  A    between atoms: _398  and  _399
REMARK  169  A    between atoms: _403  and  _405
REMARK  170  A    between atoms: _405  and  _406
REMARK  171  A    between atoms: _405  and  _408
REMARK  172  A    between atoms: _408  and  _409
REMARK  173  A    between atoms: _409  and  _410
REMARK  174  A    between atoms: _412  and  _414
REMARK  175  A    between atoms: _414  and  _415
REMARK  176  A    between atoms: _414  and  _417
REMARK  177  A    between atoms: _417  and  _418
REMARK  178  A    between atoms: _421  and  _423
REMARK  179  A    between atoms: _423  and  _424
REMARK  180  A    between atoms: _426  and  _428
REMARK  181  A    between atoms: _428  and  _429
REMARK  182  A    between atoms: _431  and  _433
REMARK  183  A    between atoms: _433  and  _434
REMARK  184  A    between atoms: _433  and  _436
REMARK  185  A    between atoms: _436  and  _437
REMARK  186  A    between atoms: _440  and  _442
REMARK  187  A    between atoms: _442  and  _443
REMARK  188  A    between atoms: _445  and  _447
REMARK  189  A    between atoms: _447  and  _448
REMARK  190  A    between atoms: _450  and  _452
REMARK  191  A    between atoms: _452  and  _453
REMARK  192  A    between atoms: _452  and  _455
REMARK  193  A    between atoms: _455  and  _456
REMARK  194  A    between atoms: _462  and  _464
REMARK  195  A    between atoms: _464  and  _465
REMARK  196  A    between atoms: _464  and  _467
REMARK  197  A    between atoms: _467  and  _468
REMARK  198  A    between atoms: _471  and  _473
REMARK  199  A    between atoms: _473  and  _474
REMARK  200  A    between atoms: _473  and  _476
REMARK  201  A    between atoms: _479  and  _481
REMARK  202  A    between atoms: _481  and  _482
REMARK  203  A    between atoms: _481  and  _484
REMARK  204  A    between atoms: _484  and  _485
REMARK  205  A    between atoms: _489  and  _490
REMARK  206  A    between atoms: _495  and  _497
REMARK  207  A    between atoms: _497  and  _498
REMARK  208  A    between atoms: _497  and  _500
REMARK  209  A    between atoms: _500  and  _501
REMARK  210  A    between atoms: _505  and  _506
REMARK  211  A    between atoms: _511  and  _513
REMARK  212  A    between atoms: _513  and  _514
REMARK  213  A    between atoms: _513  and  _516
REMARK  214  A    between atoms: _519  and  _521
REMARK  215  A    between atoms: _521  and  _522
REMARK  216  A    between atoms: _521  and  _524
REMARK  217  A    between atoms: _524  and  _525
REMARK  218  A    between atoms: _530  and  _532
REMARK  219  A    between atoms: _532  and  _533
REMARK  220  A    between atoms: _532  and  _535
REMARK  221  A    between atoms: _535  and  _536
REMARK  222  A    between atoms: _539  and  _541
REMARK  223  A    between atoms: _541  and  _542
REMARK  224  A    between atoms: _541  and  _544
REMARK  225  A    between atoms: _544  and  _545
REMARK  226  A    between atoms: _548  and  _550
REMARK  227  A    between atoms: _550  and  _551
REMARK  228  A    between atoms: _553  and  _555
REMARK  229  A    between atoms: _555  and  _556
REMARK  230  A    between atoms: _555  and  _558
REMARK  231  A    between atoms: _558  and  _559
REMARK  232  A    between atoms: _559  and  _560
REMARK  233  A    between atoms: _560  and  _561
REMARK                            x       y       z     vdW  Elec       q    Type
REMARK                         _______ _______ _______ _____ _____    ______ ____
ROOT
ATOM      1  NE  ARG A   1       6.785  30.200   0.522  0.00  0.00    -0.265 N 
ATOM      2  HE  ARG A   1       6.945  30.807   1.351  0.00  0.00    +0.259 HD
ATOM      3  CZ  ARG A   1       5.934  29.187   0.646  0.00  0.00    +0.342 C 
ATOM      4  NH2 ARG A   1       5.310  28.978   1.795  0.00  0.00    -0.292 N 
ATOM      5 HH21 ARG A   1       5.485  29.608   2.604  0.00  0.00    +0.255 HD
ATOM      6 HH22 ARG A   1       4.645  28.184   1.889  0.00  0.00    +0.255 HD
ATOM      7  NH1 ARG A   1       5.702  28.387  -0.387  0.00  0.00    -0.292 N 
ATOM      8 HH11 ARG A   1       5.036  27.594  -0.291  0.00  0.00    +0.255 HD
ATOM      9 HH12 ARG A   1       6.186  28.553  -1.292  0.00  0.00    +0.255 HD
ENDROOT
BRANCH   1  10
ATOM     10  CD  ARG A   1       7.509  30.513  -0.706  0.00  0.00    +0.174 C 
BRANCH  10  11
ATOM     11  CG  ARG A   1       8.428  31.699  -0.508  0.00  0.00    +0.045 C 
BRANCH  11  12
ATOM     12  CB  ARG A   1       9.204  32.002  -1.759  0.00  0.00    +0.029 C 
BRANCH  12  13
ATOM     13  CA  ARG A   1      10.161  33.182  -1.611  0.00  0.00    +0.133 C 
BRANCH  13  14
ATOM     14  N   ARG A   1       9.423  34.430  -1.482  0.00  0.00    -0.239 NA
ATOM     15  H   ARG A   1       8.383  34.418  -1.495  0.00  0.00    +0.142 HD
ENDBRANCH  13  14
BRANCH  13  16
ATOM     16  C   ARG A   1      11.072  33.243  -2.829  0.00  0.00    +0.224 C 
ATOM     17  O   ARG A   1      10.666  33.695  -3.896  0.00  0.00    -0.287 OA
ENDBRANCH  13  16
ENDBRANCH  12  13
ENDBRANCH  11  12
ENDBRANCH  10  11
ENDBRANCH   1  10
TORSDOF 6
REMARK  Name = ../refined-set-2016/1ec1/1ec1_pocket.pdb
REMARK  233 active torsions:
REMARK  status: ('A' for Active; 'I' for Inactive)
REMARK    1  A    between atoms: _1  and  _3
REMARK    2  A    between atoms: _3  and  _4
REMARK    3  A    between atoms: _3  and  _6
REMARK    4  A    between atoms: _6  and  _7
REMARK    5  A    between atoms: _7  and  _8
REMARK    6  A    between atoms: _8  and  _9
REMARK    7  A    between atoms: _18  and  _20
REMARK    8  A    between atoms: _20  and  _21
REMARK    9  A    between atoms: _20  and  _23
REMARK   10  A    between atoms: _23  and  _24
REMARK   11  A    between atoms: _27  and  _29
REMARK   12  A    between atoms: _29  and  _30
REMARK   13  A    between atoms: _29  and  _32
REMARK   14  A    between atoms: _32  and  _33
REMARK   15  A    between atoms: _36  and  _38
REMARK   16  A    between atoms: _38  and  _39
REMARK   17  A    between atoms: _38  and  _41
REMARK   18  A    between atoms: _41  and  _42
REMARK   19  A    between atoms: _45  and  _47
REMARK   20  A    between atoms: _47  and  _48
REMARK   21  A    between atoms: _47  and  _50
REMARK   22  A    between atoms: _50  and  _51
REMARK   23  A    between atoms: _54  and  _56
REMARK   24  A    between atoms: _56  and  _57
REMARK   25  A    between atoms: _56  and  _59
REMARK   26  A    between atoms: _59  and  _60
REMARK   27  A    between atoms: _63  and  _65
REMARK   28  A    between atoms: _65  and  _66
REMARK   29  A    between atoms: _68  and  _70
REMARK   30  A    between atoms: _70  and  _71
REMARK   31  A    between atoms: _74  and  _76
REMARK   32  A    between atoms: _76  and  _77
REMARK   33  A    between atoms: _76  and  _79
REMARK   34  A    between atoms: _79  and  _80
REMARK   35  A    between atoms: _83  and  _85
REMARK   36  A    between atoms: _85  and  _86
REMARK   37  A    between atoms: _85  and  _88
REMARK   38  A    between atoms: _88  and  _89
REMARK   39  A    between atoms: _92  and  _94
REMARK   40  A    between atoms: _94  and  _95
REMARK   41  A    between atoms: _94  and  _97
REMARK   42  A    between atoms: _97  and  _98
REMARK   43  A    between atoms: _101  and  _103
REMARK   44  A    between atoms: _103  and  _104
REMARK   45  A    between atoms: _103  and  _106
REMARK   46  A    between atoms: _109  and  _111
REMARK   47  A    between atoms: _111  and  _112
REMARK   48  A    between atoms: _111  and  _114
REMARK   49  A    between atoms: _114  and  _115
REMARK   50  A    between atoms: _115  and  _116
REMARK   51  A    between atoms: _116  and  _117
REMARK   52  A    between atoms: _117  and  _118
REMARK   53  A    between atoms: _122  and  _124
REMARK   54  A    between atoms: _124  and  _125
REMARK   55  A    between atoms: _124  and  _127
REMARK   56  A    between atoms: _127  and  _128
REMARK   57  A    between atoms: _128  and  _129
REMARK   58  A    between atoms: _131  and  _133
REMARK   59  A    between atoms: _133  and  _134
REMARK   60  A    between atoms: _133  and  _136
REMARK   61  A    between atoms: _136  and  _137
REMARK   62  A    between atoms: _140  and  _142
REMARK   63  A    between atoms: _142  and  _143
REMARK   64  A    between atoms: _145  and  _147
REMARK   65  A    between atoms: _147  and  _148
REMARK   66  A    between atoms: _150  and  _152
REMARK   67  A    between atoms: _152  and  _153
REMARK   68  A    between atoms: _152  and  _155
REMARK   69  A    between atoms: _155  and  _156
REMARK   70  A    between atoms: _159  and  _161
REMARK   71  A    between atoms: _161  and  _162
REMARK   72  A    between atoms: _164  and  _166
REMARK   73  A    between atoms: _166  and  _167
REMARK   74  A    between atoms: _169  and  _171
REMARK   75  A    between atoms: _171  and  _172
REMARK   76  A    between atoms: _171  and  _174
REMARK   77  A    between atoms: _174  and  _175
REMARK   78  A    between atoms: _181  and  _183
REMARK   79  A    between atoms: _183  and  _184
REMARK   80  A    between atoms: _183  and  _186
REMARK   81  A    between atoms: _186  and  _187
REMARK   82  A    between atoms: _190  and  _192
REMARK   83  A    between atoms: _192  and  _193
REMARK   84  A    between atoms: _192  and  _195
REMARK   85  A    between atoms: _198  and  _200
REMARK   86  A    between atoms: _200  and  _201
REMARK   87  A    between atoms: _200  and  _203
REMARK   88  A    between atoms: _203  and  _204
REMARK   89  A    between atoms: _207  and  _209
REMARK   90  A    between atoms: _209  and  _210
REMARK   91  A    between atoms: _209  and  _212
REMARK   92  A    between atoms: _212  and  _213
REMARK   93  A    between atoms: _217  and  _218
REMARK   94  A    between atoms: _223  and  _225
REMARK   95  A    between atoms: _225  and  _226
REMARK   96  A    between atoms: _225  and  _228
REMARK   97  A    between atoms: _231  and  _233
REMARK   98  A    between atoms: _233  and  _234
REMARK   99  A    between atoms: _233  and  _236
REMARK  100  A    between atoms: _236  and  _237
REMARK  101  A    between atoms: _242  and  _244
REMARK  102  A    between atoms: _244  and  _245
REMARK  103  A    between atoms: _244  and  _247
REMARK  104  A    between atoms: _247  and  _248
REMARK  105  A    between atoms: _251  and  _253
REMARK  106  A    between atoms: _253  and  _254
REMARK  107  A    between atoms: _253  and  _256
REMARK  108  A    between atoms: _256  and  _257
REMARK  109  A    between atoms: _260  and  _262
REMARK  110  A    between atoms: _262  and  _263
REMARK  111  A    between atoms: _265  and  _267
REMARK  112  A    between atoms: _267  and  _268
REMARK  113  A    between atoms: _267  and  _270
REMARK  114  A    between atoms: _270  and  _271
REMARK  115  A    between atoms: _271  and  _272
REMARK  116  A    between atoms: _272  and  _273
REMARK  117  A    between atoms: _282  and  _284
REMARK  118  A    between atoms: _284  and  _285
REMARK  119  A    between atoms: _284  and  _287
REMARK  120  A    between atoms: _287  and  _288
REMARK  121  A    between atoms: _288  and  _289
REMARK  122  A    between atoms: _289  and  _290
REMARK  123  A    between atoms: _299  and  _301
REMARK  124  A    between atoms: _301  and  _302
REMARK  125  A    between atoms: _301  and  _304
REMARK  126  A    between atoms: _304  and  _305
REMARK  127  A    between atoms: _308  and  _310
REMARK  128  A    between atoms: _310  and  _311
REMARK  129  A    between atoms: _310  and  _313
REMARK  130  A    between atoms: _313  and  _314
REMARK  131  A    between atoms: _317  and  _319
REMARK  132  A    between atoms: _319  and  _320
REMARK  133  A    between atoms: _319  and  _322
REMARK  134  A    between atoms: _322  and  _323
REMARK  135  A    between atoms: _326  and  _328
REMARK  136  A    between atoms: _328  and  _329
REMARK  137  A    between atoms: _328  and  _331
REMARK  138  A    between atoms: _331  and  _332
REMARK  139  A    between atoms: _335  and  _337
REMARK  140  A    between atoms: _337  and  _338
REMARK  141  A    between atoms: _337  and  _340
REMARK  142  A    between atoms: _340  and  _341
REMARK  143  A    between atoms: _344  and  _346
REMARK  144  A    between atoms: _346  and  _347
REMARK  145  A    between atoms: _349  and  _351
REMARK  146  A    between atoms: _351  and  _352
REMARK  147  A    between atoms: _355  and  _357
REMARK  148  A    between atoms: _357  and  _358
REMARK  149  A    between atoms: _357  and  _360
REMARK  150  A    between atoms: _360  and  _361
REMARK  151  A    between atoms: _364  and  _366
REMARK  152  A    between atoms: _366  and  _367
REMARK  153  A    between atoms: _366  and  _369
REMARK  154  A    between atoms: _369  and  _370
REMARK  155  A    between atoms: _373  and  _375
REMARK  156  A    between atoms: _375  and  _376
REMARK  157  A    between atoms: _375  and  _378
REMARK  158  A    between atoms: _378  and  _379
REMARK  159  A    between atoms: _382  and  _384
REMARK  160  A    between atoms: _384  and  _385
REMARK  161  A    between atoms: _384  and  _387
REMARK  162  A    between atoms: _390  and  _392
REMARK  163  A    between atoms: _392  and  _393
REMARK  164  A    between atoms: _392  and  _395
REMARK  165  A    between atoms: _395  and  _396
REMARK  166  A    between atoms: _396  and  _397
REMARK  167  A    between atoms: _397  and  _398
REMARK  168  A    between atoms: _398  and  _399
REMARK  169  A    between atoms: _403  and  _405
REMARK  170  A    between atoms: _405  and  _406
REMARK  171  A    between atoms: _405  and  _408
REMARK  172  A    between atoms: _408  and  _409
REMARK  173  A    between atoms: _409  and  _410
REMARK  174  A    between atoms: _412  and  _414
REMARK  175  A    between atoms: _414  and  _415
REMARK  176  A    between atoms: _414  and  _417
REMARK  177  A    between atoms: _417  and  _418
REMARK  178  A    between atoms: _421  and  _423
REMARK  179  A    between atoms: _423  and  _424
REMARK  180  A    between atoms: _426  and  _428
REMARK  181  A    between atoms: _428  and  _429
REMARK  182  A    between atoms: _431  and  _433
REMARK  183  A    between atoms: _433  and  _434
REMARK  184  A    between atoms: _433  and  _436
REMARK  185  A    between atoms: _436  and  _437
REMARK  186  A    between atoms: _440  and  _442
REMARK  187  A    between atoms: _442  and  _443
REMARK  188  A    between atoms: _445  and  _447
REMARK  189  A    between atoms: _447  and  _448
REMARK  190  A    between atoms: _450  and  _452
REMARK  191  A    between atoms: _452  and  _453
REMARK  192  A    between atoms: _452  and  _455
REMARK  193  A    between atoms: _455  and  _456
REMARK  194  A    between atoms: _462  and  _464
REMARK  195  A    between atoms: _464  and  _465
REMARK  196  A    between atoms: _464  and  _467
REMARK  197  A    between atoms: _467  and  _468
REMARK  198  A    between atoms: _471  and  _473
REMARK  199  A    between atoms: _473  and  _474
REMARK  200  A    between atoms: _473  and  _476
REMARK  201  A    between atoms: _479  and  _481
REMARK  202  A    between atoms: _481  and  _482
REMARK  203  A    between atoms: _481  and  _484
REMARK  204  A    between atoms: _484  and  _485
REMARK  205  A    between atoms: _489  and  _490
REMARK  206  A    between atoms: _495  and  _497
REMARK  207  A    between atoms: _497  and  _498
REMARK  208  A    between atoms: _497  and  _500
REMARK  209  A    between atoms: _500  and  _501
REMARK  210  A    between atoms: _505  and  _506
REMARK  211  A    between atoms: _511  and  _513
REMARK  212  A    between atoms: _513  and  _514
REMARK  213  A    between atoms: _513  and  _516
REMARK  214  A    between atoms: _519  and  _521
REMARK  215  A    between atoms: _521  and  _522
REMARK  216  A    between atoms: _521  and  _524
REMARK  217  A    between atoms: _524  and  _525
REMARK  218  A    between atoms: _530  and  _532
REMARK  219  A    between atoms: _532  and  _533
REMARK  220  A    between atoms: _532  and  _535
REMARK  221  A    between atoms: _535  and  _536
REMARK  222  A    between atoms: _539  and  _541
REMARK  223  A    between atoms: _541  and  _542
REMARK  224  A    between atoms: _541  and  _544
REMARK  225  A    between atoms: _544  and  _545
REMARK  226  A    between atoms: _548  and  _550
REMARK  227  A    between atoms: _550  and  _551
REMARK  228  A    between atoms: _553  and  _555
REMARK  229  A    between atoms: _555  and  _556
REMARK  230  A    between atoms: _555  and  _558
REMARK  231  A    between atoms: _558  and  _559
REMARK  232  A    between atoms: _559  and  _560
REMARK  233  A    between atoms: _560  and  _561
REMARK                            x       y       z     vdW  Elec       q    Type
REMARK                         _______ _______ _______ _____ _____    ______ ____
ROOT
ATOM      1  CA  LEU A   1      11.461  30.842  -6.487  0.00  0.00    +0.133 C 
ENDROOT
BRANCH   1   2
ATOM      2  N   LEU A   1      11.847  31.834  -5.500  0.00  0.00    -0.239 NA
ATOM      3  H   LEU A   1      11.240  32.664  -5.347  0.00  0.00    +0.142 HD
ENDBRANCH   1   2
BRANCH   1   4
ATOM      4  C   LEU A   1      12.129  31.177  -7.803  0.00  0.00    +0.224 C 
ATOM      5  O   LEU A   1      12.264  32.341  -8.161  0.00  0.00    -0.287 OA
ENDBRANCH   1   4
BRANCH   1   6
ATOM      6  CB  LEU A   1       9.940  30.821  -6.674  0.00  0.00    +0.025 C 
BRANCH   6   7
ATOM      7  CG  LEU A   1       9.114  30.381  -5.464  0.00  0.00    +0.002 C 
ATOM      8  CD2 LEU A   1       9.590  29.013  -4.987  0.00  0.00    +0.000 C 
ATOM      9  CD1 LEU A   1       7.631  30.328  -5.845  0.00  0.00    +0.000 C 
ENDBRANCH   6   7
ENDBRANCH   1   6
TORSDOF 4
REMARK  Name = ../refined-set-2016/1ec1/1ec1_pocket.pdb
REMARK  233 active torsions:
REMARK  status: ('A' for Active; 'I' for Inactive)
REMARK    1  A    between atoms: _1  and  _3
REMARK    2  A    between atoms: _3  and  _4
REMARK    3  A    between atoms: _3  and  _6
REMARK    4  A    between atoms: _6  and  _7
REMARK    5  A    between atoms: _7  and  _8
REMARK    6  A    between atoms: _8  and  _9
REMARK    7  A    between atoms: _18  and  _20
REMARK    8  A    between atoms: _20  and  _21
REMARK    9  A    between atoms: _20  and  _23
REMARK   10  A    between atoms: _23  and  _24
REMARK   11  A    between atoms: _27  and  _29
REMARK   12  A    between atoms: _29  and  _30
REMARK   13  A    between atoms: _29  and  _32
REMARK   14  A    between atoms: _32  and  _33
REMARK   15  A    between atoms: _36  and  _38
REMARK   16  A    between atoms: _38  and  _39
REMARK   17  A    between atoms: _38  and  _41
REMARK   18  A    between atoms: _41  and  _42
REMARK   19  A    between atoms: _45  and  _47
REMARK   20  A    between atoms: _47  and  _48
REMARK   21  A    between atoms: _47  and  _50
REMARK   22  A    between atoms: _50  and  _51
REMARK   23  A    between atoms: _54  and  _56
REMARK   24  A    between atoms: _56  and  _57
REMARK   25  A    between atoms: _56  and  _59
REMARK   26  A    between atoms: _59  and  _60
REMARK   27  A    between atoms: _63  and  _65
REMARK   28  A    between atoms: _65  and  _66
REMARK   29  A    between atoms: _68  and  _70
REMARK   30  A    between atoms: _70  and  _71
REMARK   31  A    between atoms: _74  and  _76
REMARK   32  A    between atoms: _76  and  _77
REMARK   33  A    between atoms: _76  and  _79
REMARK   34  A    between atoms: _79  and  _80
REMARK   35  A    between atoms: _83  and  _85
REMARK   36  A    between atoms: _85  and  _86
REMARK   37  A    between atoms: _85  and  _88
REMARK   38  A    between atoms: _88  and  _89
REMARK   39  A    between atoms: _92  and  _94
REMARK   40  A    between atoms: _94  and  _95
REMARK   41  A    between atoms: _94  and  _97
REMARK   42  A    between atoms: _97  and  _98
REMARK   43  A    between atoms: _101  and  _103
REMARK   44  A    between atoms: _103  and  _104
REMARK   45  A    between atoms: _103  and  _106
REMARK   46  A    between atoms: _109  and  _111
REMARK   47  A    between atoms: _111  and  _112
REMARK   48  A    between atoms: _111  and  _114
REMARK   49  A    between atoms: _114  and  _115
REMARK   50  A    between atoms: _115  and  _116
REMARK   51  A    between atoms: _116  and  _117
REMARK   52  A    between atoms: _117  and  _118
REMARK   53  A    between atoms: _122  and  _124
REMARK   54  A    between atoms: _124  and  _125
REMARK   55  A    between atoms: _124  and  _127
REMARK   56  A    between atoms: _127  and  _128
REMARK   57  A    between atoms: _128  and  _129
REMARK   58  A    between atoms: _131  and  _133
REMARK   59  A    between atoms: _133  and  _134
REMARK   60  A    between atoms: _133  and  _136
REMARK   61  A    between atoms: _136  and  _137
REMARK   62  A    between atoms: _140  and  _142
REMARK   63  A    between atoms: _142  and  _143
REMARK   64  A    between atoms: _145  and  _147
REMARK   65  A    between atoms: _147  and  _148
REMARK   66  A    between atoms: _150  and  _152
REMARK   67  A    between atoms: _152  and  _153
REMARK   68  A    between atoms: _152  and  _155
REMARK   69  A    between atoms: _155  and  _156
REMARK   70  A    between atoms: _159  and  _161
REMARK   71  A    between atoms: _161  and  _162
REMARK   72  A    between atoms: _164  and  _166
REMARK   73  A    between atoms: _166  and  _167
REMARK   74  A    between atoms: _169  and  _171
REMARK   75  A    between atoms: _171  and  _172
REMARK   76  A    between atoms: _171  and  _174
REMARK   77  A    between atoms: _174  and  _175
REMARK   78  A    between atoms: _181  and  _183
REMARK   79  A    between atoms: _183  and  _184
REMARK   80  A    between atoms: _183  and  _186
REMARK   81  A    between atoms: _186  and  _187
REMARK   82  A    between atoms: _190  and  _192
REMARK   83  A    between atoms: _192  and  _193
REMARK   84  A    between atoms: _192  and  _195
REMARK   85  A    between atoms: _198  and  _200
REMARK   86  A    between atoms: _200  and  _201
REMARK   87  A    between atoms: _200  and  _203
REMARK   88  A    between atoms: _203  and  _204
REMARK   89  A    between atoms: _207  and  _209
REMARK   90  A    between atoms: _209  and  _210
REMARK   91  A    between atoms: _209  and  _212
REMARK   92  A    between atoms: _212  and  _213
REMARK   93  A    between atoms: _217  and  _218
REMARK   94  A    between atoms: _223  and  _225
REMARK   95  A    between atoms: _225  and  _226
REMARK   96  A    between atoms: _225  and  _228
REMARK   97  A    between atoms: _231  and  _233
REMARK   98  A    between atoms: _233  and  _234
REMARK   99  A    between atoms: _233  and  _236
REMARK  100  A    between atoms: _236  and  _237
REMARK  101  A    between atoms: _242  and  _244
REMARK  102  A    between atoms: _244  and  _245
REMARK  103  A    between atoms: _244  and  _247
REMARK  104  A    between atoms: _247  and  _248
REMARK  105  A    between atoms: _251  and  _253
REMARK  106  A    between atoms: _253  and  _254
REMARK  107  A    between atoms: _253  and  _256
REMARK  108  A    between atoms: _256  and  _257
REMARK  109  A    between atoms: _260  and  _262
REMARK  110  A    between atoms: _262  and  _263
REMARK  111  A    between atoms: _265  and  _267
REMARK  112  A    between atoms: _267  and  _268
REMARK  113  A    between atoms: _267  and  _270
REMARK  114  A    between atoms: _270  and  _271
REMARK  115  A    between atoms: _271  and  _272
REMARK  116  A    between atoms: _272  and  _273
REMARK  117  A    between atoms: _282  and  _284
REMARK  118  A    between atoms: _284  and  _285
REMARK  119  A    between atoms: _284  and  _287
REMARK  120  A    between atoms: _287  and  _288
REMARK  121  A    between atoms: _288  and  _289
REMARK  122  A    between atoms: _289  and  _290
REMARK  123  A    between atoms: _299  and  _301
REMARK  124  A    between atoms: _301  and  _302
REMARK  125  A    between atoms: _301  and  _304
REMARK  126  A    between atoms: _304  and  _305
REMARK  127  A    between atoms: _308  and  _310
REMARK  128  A    between atoms: _310  and  _311
REMARK  129  A    between atoms: _310  and  _313
REMARK  130  A    between atoms: _313  and  _314
REMARK  131  A    between atoms: _317  and  _319
REMARK  132  A    between atoms: _319  and  _320
REMARK  133  A    between atoms: _319  and  _322
REMARK  134  A    between atoms: _322  and  _323
REMARK  135  A    between atoms: _326  and  _328
REMARK  136  A    between atoms: _328  and  _329
REMARK  137  A    between atoms: _328  and  _331
REMARK  138  A    between atoms: _331  and  _332
REMARK  139  A    between atoms: _335  and  _337
REMARK  140  A    between atoms: _337  and  _338
REMARK  141  A    between atoms: _337  and  _340
REMARK  142  A    between atoms: _340  and  _341
REMARK  143  A    between atoms: _344  and  _346
REMARK  144  A    between atoms: _346  and  _347
REMARK  145  A    between atoms: _349  and  _351
REMARK  146  A    between atoms: _351  and  _352
REMARK  147  A    between atoms: _355  and  _357
REMARK  148  A    between atoms: _357  and  _358
REMARK  149  A    between atoms: _357  and  _360
REMARK  150  A    between atoms: _360  and  _361
REMARK  151  A    between atoms: _364  and  _366
REMARK  152  A    between atoms: _366  and  _367
REMARK  153  A    between atoms: _366  and  _369
REMARK  154  A    between atoms: _369  and  _370
REMARK  155  A    between atoms: _373  and  _375
REMARK  156  A    between atoms: _375  and  _376
REMARK  157  A    between atoms: _375  and  _378
REMARK  158  A    between atoms: _378  and  _379
REMARK  159  A    between atoms: _382  and  _384
REMARK  160  A    between atoms: _384  and  _385
REMARK  161  A    between atoms: _384  and  _387
REMARK  162  A    between atoms: _390  and  _392
REMARK  163  A    between atoms: _392  and  _393
REMARK  164  A    between atoms: _392  and  _395
REMARK  165  A    between atoms: _395  and  _396
REMARK  166  A    between atoms: _396  and  _397
REMARK  167  A    between atoms: _397  and  _398
REMARK  168  A    between atoms: _398  and  _399
REMARK  169  A    between atoms: _403  and  _405
REMARK  170  A    between atoms: _405  and  _406
REMARK  171  A    between atoms: _405  and  _408
REMARK  172  A    between atoms: _408  and  _409
REMARK  173  A    between atoms: _409  and  _410
REMARK  174  A    between atoms: _412  and  _414
REMARK  175  A    between atoms: _414  and  _415
REMARK  176  A    between atoms: _414  and  _417
REMARK  177  A    between atoms: _417  and  _418
REMARK  178  A    between atoms: _421  and  _423
REMARK  179  A    between atoms: _423  and  _424
REMARK  180  A    between atoms: _426  and  _428
REMARK  181  A    between atoms: _428  and  _429
REMARK  182  A    between atoms: _431  and  _433
REMARK  183  A    between atoms: _433  and  _434
REMARK  184  A    between atoms: _433  and  _436
REMARK  185  A    between atoms: _436  and  _437
REMARK  186  A    between atoms: _440  and  _442
REMARK  187  A    between atoms: _442  and  _443
REMARK  188  A    between atoms: _445  and  _447
REMARK  189  A    between atoms: _447  and  _448
REMARK  190  A    between atoms: _450  and  _452
REMARK  191  A    between atoms: _452  and  _453
REMARK  192  A    between atoms: _452  and  _455
REMARK  193  A    between atoms: _455  and  _456
REMARK  194  A    between atoms: _462  and  _464
REMARK  195  A    between atoms: _464  and  _465
REMARK  196  A    between atoms: _464  and  _467
REMARK  197  A    between atoms: _467  and  _468
REMARK  198  A    between atoms: _471  and  _473
REMARK  199  A    between atoms: _473  and  _474
REMARK  200  A    between atoms: _473  and  _476
REMARK  201  A    between atoms: _479  and  _481
REMARK  202  A    between atoms: _481  and  _482
REMARK  203  A    between atoms: _481  and  _484
REMARK  204  A    between atoms: _484  and  _485
REMARK  205  A    between atoms: _489  and  _490
REMARK  206  A    between atoms: _495  and  _497
REMARK  207  A    between atoms: _497  and  _498
REMARK  208  A    between atoms: _497  and  _500
REMARK  209  A    between atoms: _500  and  _501
REMARK  210  A    between atoms: _505  and  _506
REMARK  211  A    between atoms: _511  and  _513
REMARK  212  A    between atoms: _513  and  _514
REMARK  213  A    between atoms: _513  and  _516
REMARK  214  A    between atoms: _519  and  _521
REMARK  215  A    between atoms: _521  and  _522
REMARK  216  A    between atoms: _521  and  _524
REMARK  217  A    between atoms: _524  and  _525
REMARK  218  A    between atoms: _530  and  _532
REMARK  219  A    between atoms: _532  and  _533
REMARK  220  A    between atoms: _532  and  _535
REMARK  221  A    between atoms: _535  and  _536
REMARK  222  A    between atoms: _539  and  _541
REMARK  223  A    between atoms: _541  and  _542
REMARK  224  A    between atoms: _541  and  _544
REMARK  225  A    between atoms: _544  and  _545
REMARK  226  A    between atoms: _548  and  _550
REMARK  227  A    between atoms: _550  and  _551
REMARK  228  A    between atoms: _553  and  _555
REMARK  229  A    between atoms: _555  and  _556
REMARK  230  A    between atoms: _555  and  _558
REMARK  231  A    between atoms: _558  and  _559
REMARK  232  A    between atoms: _559  and  _560
REMARK  233  A    between atoms: _560  and  _561
REMARK                            x       y       z     vdW  Elec       q    Type
REMARK                         _______ _______ _______ _____ _____    ______ ____
ROOT
ATOM      1  C   GLY A   5      18.537  24.043   4.244  0.00  0.00    +0.243 C 
ATOM      2  O   GLY A   5      18.333  23.204   5.122  0.00  0.00    -0.273 OA
ATOM      3  N   ALA A   6      18.709  23.717   2.969  0.00  0.00    -0.297 N 
ATOM      4  H   ALA A   6      18.899  24.465   2.272  0.00  0.00    +0.150 HD
ENDROOT
BRANCH   3   5
ATOM      5  CA  ALA A   6      18.636  22.331   2.528  0.00  0.00    +0.149 C 
ATOM      6  CB  ALA A   6      17.614  22.206   1.394  0.00  0.00    +0.031 C 
BRANCH   5   7
ATOM      7  C   ALA A   6      19.983  21.785   2.069  0.00  0.00    +0.241 C 
ATOM      8  N   ASP A   7      20.426  20.685   2.676  0.00  0.00    -0.297 N 
ATOM      9  H   ASP A   7      19.868  20.256   3.442  0.00  0.00    +0.150 HD
ATOM     10  O   ALA A   6      20.616  22.355   1.182  0.00  0.00    -0.273 OA
BRANCH   8  11
ATOM     11  CA  ASP A   7      21.691  20.080   2.271  0.00  0.00    +0.160 C 
BRANCH  11  12
ATOM     12  C   ASP A   7      21.506  19.516   0.865  0.00  0.00    +0.241 C 
ATOM     13  N   ASP A   8      20.336  18.927   0.635  0.00  0.00    -0.297 N 
ATOM     14  H   ASP A   8      19.614  18.917   1.384  0.00  0.00    +0.150 HD
ATOM     15  O   ASP A   7      22.396  19.602   0.020  0.00  0.00    -0.273 OA
BRANCH  13  16
ATOM     16  CA  ASP A   8      20.046  18.295  -0.645  0.00  0.00    +0.160 C 
BRANCH  16  17
ATOM     17  C   ASP A   8      18.942  18.945  -1.448  0.00  0.00    +0.241 C 
ATOM     18  O   ASP A   8      18.154  19.750  -0.939  0.00  0.00    -0.273 OA
ATOM     19  N   THR A   9      18.889  18.547  -2.713  0.00  0.00    -0.295 N 
ATOM     20  H   THR A   9      19.596  17.863  -3.050  0.00  0.00    +0.150 HD
BRANCH  19  21
ATOM     21  CA  THR A   9      17.889  19.024  -3.642  0.00  0.00    +0.176 C 
BRANCH  21  22
ATOM     22  C   THR A   9      16.820  17.950  -3.653  0.00  0.00    +0.243 C 
ATOM     23  N   VAL A  10      15.601  18.362  -3.354  0.00  0.00    -0.298 N 
ATOM     24  H   VAL A  10      15.438  19.368  -3.146  0.00  0.00    +0.150 HD
ATOM     25  O   THR A   9      17.097  16.765  -3.888  0.00  0.00    -0.273 OA
BRANCH  23  26
ATOM     26  CA  VAL A  10      14.485  17.436  -3.311  0.00  0.00    +0.137 C 
BRANCH  26  27
ATOM     27  CB  VAL A  10      13.908  17.335  -1.890  0.00  0.00    +0.026 C 
ATOM     28  CG2 VAL A  10      15.048  17.205  -0.872  0.00  0.00    +0.002 C 
ATOM     29  CG1 VAL A  10      12.945  16.152  -1.808  0.00  0.00    +0.002 C 
ENDBRANCH  26  27
BRANCH  26  30
ATOM     30  C   VAL A  10      13.397  17.938  -4.237  0.00  0.00    +0.227 C 
ATOM     31  O   VAL A  10      12.944  19.071  -4.112  0.00  0.00    -0.286 OA
ENDBRANCH  26  30
ENDBRANCH  23  26
ENDBRANCH  21  22
BRANCH  21  32
ATOM     32  CB  THR A   9      18.496  19.210  -5.035  0.00  0.00    +0.137 C 
ATOM     33  CG2 THR A   9      17.418  19.490  -6.087  0.00  0.00    +0.034 C 
BRANCH  32  34
ATOM     34  OG1 THR A   9      19.412  20.305  -4.985  0.00  0.00    -0.382 OA
ATOM     35  HG1 THR A   9      20.125  20.107  -4.328  0.00  0.00    +0.210 HD
ENDBRANCH  32  34
ENDBRANCH  21  32
ENDBRANCH  19  21
ENDBRANCH  16  17
BRANCH  16  36
ATOM     36  CB  ASP A   8      19.657  16.833  -0.430  0.00  0.00    +0.143 C 
BRANCH  36  37
ATOM     37  CG  ASP A   8      20.610  16.104   0.483  0.00  0.00    +0.367 C 
ATOM     38  OD2 ASP A   8      20.137  15.354   1.360  0.00  0.00    -0.246 OA
ATOM     39  OD1 ASP A   8      21.829  16.269   0.316  0.00  0.00    -0.246 OA
ENDBRANCH  36  37
ENDBRANCH  16  36
ENDBRANCH  13  16
ENDBRANCH  11  12
BRANCH  11  40
ATOM     40  CB  ASP A   7      22.083  18.904   3.175  0.00  0.00    +0.143 C 
BRANCH  40  41
ATOM     41  CG  ASP A   7      22.400  19.319   4.593  0.00  0.00    +0.367 C 
ATOM     42  OD2 ASP A   7      22.394  18.425   5.463  0.00  0.00    -0.246 OA
ATOM     43  OD1 ASP A   7      22.677  20.512   4.836  0.00  0.00    -0.246 OA
ENDBRANCH  40  41
ENDBRANCH  11  40
ENDBRANCH   8  11
ENDBRANCH   5   7
ENDBRANCH   3   5
BRANCH   1  44
ATOM     44  CA  GLY A   5      18.615  25.524   4.584  0.00  0.00    +0.176 C 
BRANCH  44  47
ATOM     45  C   THR A   4      20.037  26.605   2.960  0.00  0.00    +0.243 C 
ATOM     46  O   THR A   4      21.050  26.142   3.488  0.00  0.00    -0.273 OA
ATOM     47  N   GLY A   5      18.811  26.356   3.410  0.00  0.00    -0.295 N 
ATOM     48  H   GLY A   5      17.988  26.759   2.919  0.00  0.00    +0.150 HD
BRANCH  45  49
ATOM     49  CA  THR A   4      20.143  27.486   1.715  0.00  0.00    +0.176 C 
BRANCH  49  51
ATOM     50  C   ASP A   3      18.344  26.596   0.369  0.00  0.00    +0.241 C 
ATOM     51  N   THR A   4      18.862  27.621   1.035  0.00  0.00    -0.295 N 
ATOM     52  H   THR A   4      18.350  28.526   1.071  0.00  0.00    +0.150 HD
ATOM     53  O   ASP A   3      18.889  25.491   0.319  0.00  0.00    -0.273 OA
BRANCH  50  54
ATOM     54  CA  ASP A   3      17.002  26.833  -0.312  0.00  0.00    +0.160 C 
BRANCH  54  57
ATOM     55  C   LEU A   2      16.692  28.280  -2.254  0.00  0.00    +0.241 C 
ATOM     56  O   LEU A   2      16.358  29.252  -1.579  0.00  0.00    -0.273 OA
ATOM     57  N   ASP A   3      17.065  27.118  -1.735  0.00  0.00    -0.297 N 
ATOM     58  H   ASP A   3      17.418  26.378  -2.375  0.00  0.00    +0.150 HD
BRANCH  55  59
ATOM     59  CA  LEU A   2      16.691  28.344  -3.777  0.00  0.00    +0.149 C 
BRANCH  59  62
ATOM     60  C   LEU A   1      14.564  27.177  -3.999  0.00  0.00    +0.238 C 
ATOM     61  O   LEU A   1      15.105  26.082  -3.844  0.00  0.00    -0.274 OA
ATOM     62  N   LEU A   2      15.251  28.319  -4.032  0.00  0.00    -0.297 N 
ATOM     63  H   LEU A   2      14.754  29.208  -4.243  0.00  0.00    +0.150 HD
BRANCH  60  64
ATOM     64  CA  LEU A   1      13.051  27.265  -4.211  0.00  0.00    +0.145 C 
BRANCH  64  65
ATOM     65  N   LEU A   1      12.609  26.337  -5.228  0.00  0.00    -0.238 NA
ATOM     66  H   LEU A   1      12.470  25.340  -4.967  0.00  0.00    +0.142 HD
ENDBRANCH  64  65
BRANCH  64  67
ATOM     67  CB  LEU A   1      12.311  26.916  -2.918  0.00  0.00    +0.026 C 
BRANCH  67  68
ATOM     68  CG  LEU A   1      12.242  27.839  -1.707  0.00  0.00    +0.002 C 
ATOM     69  CD2 LEU A   1      11.463  27.123  -0.604  0.00  0.00    +0.000 C 
ATOM     70  CD1 LEU A   1      11.547  29.143  -2.075  0.00  0.00    +0.000 C 
ENDBRANCH  67  68
ENDBRANCH  64  67
ENDBRANCH  60  64
ENDBRANCH  59  62
BRANCH  59  71
ATOM     71  CB  LEU A   2      17.308  29.641  -4.294  0.00  0.00    +0.029 C 
BRANCH  71  72
ATOM     72  CG  LEU A   2      17.205  29.788  -5.820  0.00  0.00    +0.002 C 
ATOM     73  CD2 LEU A   2      17.911  31.062  -6.260  0.00  0.00    +0.000 C 
ATOM     74  CD1 LEU A   2      17.822  28.569  -6.509  0.00  0.00    +0.000 C 
ENDBRANCH  71  72
ENDBRANCH  59  71
ENDBRANCH  55  59
ENDBRANCH  54  57
BRANCH  54  75
ATOM     75  CB  ASP A   3      16.122  25.595  -0.150  0.00  0.00    +0.143 C 
BRANCH  75  76
ATOM     76  CG  ASP A   3      15.578  25.433   1.243  0.00  0.00    +0.367 C 
ATOM     77  OD2 ASP A   3      16.207  25.927   2.201  0.00  0.00    -0.246 OA
ATOM     78  OD1 ASP A   3      14.517  24.791   1.363  0.00  0.00    -0.246 OA
ENDBRANCH  75  76
ENDBRANCH  54  75
ENDBRANCH  50  54
ENDBRANCH  49  51
BRANCH  49  79
ATOM     79  CB  THR A   4      20.719  28.865   2.097  0.00  0.00    +0.137 C 
ATOM     80  CG2 THR A   4      20.953  29.696   0.840  0.00  0.00    +0.034 C 
BRANCH  79  81
ATOM     81  OG1 THR A   4      19.807  29.553   2.961  0.00  0.00    -0.382 OA
ATOM     82  HG1 THR A   4      19.666  29.019   3.783  0.00  0.00    +0.210 HD
ENDBRANCH  79  81
ENDBRANCH  49  79
ENDBRANCH  45  49
ENDBRANCH  44  47
ENDBRANCH   1  44
TORSDOF 35
REMARK  Name = ../refined-set-2016/1ec1/1ec1_pocket.pdb
REMARK  233 active torsions:
REMARK  status: ('A' for Active; 'I' for Inactive)
REMARK    1  A    between atoms: _1  and  _3
REMARK    2  A    between atoms: _3  and  _4
REMARK    3  A    between atoms: _3  and  _6
REMARK    4  A    between atoms: _6  and  _7
REMARK    5  A    between atoms: _7  and  _8
REMARK    6  A    between atoms: _8  and  _9
REMARK    7  A    between atoms: _18  and  _20
REMARK    8  A    between atoms: _20  and  _21
REMARK    9  A    between atoms: _20  and  _23
REMARK   10  A    between atoms: _23  and  _24
REMARK   11  A    between atoms: _27  and  _29
REMARK   12  A    between atoms: _29  and  _30
REMARK   13  A    between atoms: _29  and  _32
REMARK   14  A    between atoms: _32  and  _33
REMARK   15  A    between atoms: _36  and  _38
REMARK   16  A    between atoms: _38  and  _39
REMARK   17  A    between atoms: _38  and  _41
REMARK   18  A    between atoms: _41  and  _42
REMARK   19  A    between atoms: _45  and  _47
REMARK   20  A    between atoms: _47  and  _48
REMARK   21  A    between atoms: _47  and  _50
REMARK   22  A    between atoms: _50  and  _51
REMARK   23  A    between atoms: _54  and  _56
REMARK   24  A    between atoms: _56  and  _57
REMARK   25  A    between atoms: _56  and  _59
REMARK   26  A    between atoms: _59  and  _60
REMARK   27  A    between atoms: _63  and  _65
REMARK   28  A    between atoms: _65  and  _66
REMARK   29  A    between atoms: _68  and  _70
REMARK   30  A    between atoms: _70  and  _71
REMARK   31  A    between atoms: _74  and  _76
REMARK   32  A    between atoms: _76  and  _77
REMARK   33  A    between atoms: _76  and  _79
REMARK   34  A    between atoms: _79  and  _80
REMARK   35  A    between atoms: _83  and  _85
REMARK   36  A    between atoms: _85  and  _86
REMARK   37  A    between atoms: _85  and  _88
REMARK   38  A    between atoms: _88  and  _89
REMARK   39  A    between atoms: _92  and  _94
REMARK   40  A    between atoms: _94  and  _95
REMARK   41  A    between atoms: _94  and  _97
REMARK   42  A    between atoms: _97  and  _98
REMARK   43  A    between atoms: _101  and  _103
REMARK   44  A    between atoms: _103  and  _104
REMARK   45  A    between atoms: _103  and  _106
REMARK   46  A    between atoms: _109  and  _111
REMARK   47  A    between atoms: _111  and  _112
REMARK   48  A    between atoms: _111  and  _114
REMARK   49  A    between atoms: _114  and  _115
REMARK   50  A    between atoms: _115  and  _116
REMARK   51  A    between atoms: _116  and  _117
REMARK   52  A    between atoms: _117  and  _118
REMARK   53  A    between atoms: _122  and  _124
REMARK   54  A    between atoms: _124  and  _125
REMARK   55  A    between atoms: _124  and  _127
REMARK   56  A    between atoms: _127  and  _128
REMARK   57  A    between atoms: _128  and  _129
REMARK   58  A    between atoms: _131  and  _133
REMARK   59  A    between atoms: _133  and  _134
REMARK   60  A    between atoms: _133  and  _136
REMARK   61  A    between atoms: _136  and  _137
REMARK   62  A    between atoms: _140  and  _142
REMARK   63  A    between atoms: _142  and  _143
REMARK   64  A    between atoms: _145  and  _147
REMARK   65  A    between atoms: _147  and  _148
REMARK   66  A    between atoms: _150  and  _152
REMARK   67  A    between atoms: _152  and  _153
REMARK   68  A    between atoms: _152  and  _155
REMARK   69  A    between atoms: _155  and  _156
REMARK   70  A    between atoms: _159  and  _161
REMARK   71  A    between atoms: _161  and  _162
REMARK   72  A    between atoms: _164  and  _166
REMARK   73  A    between atoms: _166  and  _167
REMARK   74  A    between atoms: _169  and  _171
REMARK   75  A    between atoms: _171  and  _172
REMARK   76  A    between atoms: _171  and  _174
REMARK   77  A    between atoms: _174  and  _175
REMARK   78  A    between atoms: _181  and  _183
REMARK   79  A    between atoms: _183  and  _184
REMARK   80  A    between atoms: _183  and  _186
REMARK   81  A    between atoms: _186  and  _187
REMARK   82  A    between atoms: _190  and  _192
REMARK   83  A    between atoms: _192  and  _193
REMARK   84  A    between atoms: _192  and  _195
REMARK   85  A    between atoms: _198  and  _200
REMARK   86  A    between atoms: _200  and  _201
REMARK   87  A    between atoms: _200  and  _203
REMARK   88  A    between atoms: _203  and  _204
REMARK   89  A    between atoms: _207  and  _209
REMARK   90  A    between atoms: _209  and  _210
REMARK   91  A    between atoms: _209  and  _212
REMARK   92  A    between atoms: _212  and  _213
REMARK   93  A    between atoms: _217  and  _218
REMARK   94  A    between atoms: _223  and  _225
REMARK   95  A    between atoms: _225  and  _226
REMARK   96  A    between atoms: _225  and  _228
REMARK   97  A    between atoms: _231  and  _233
REMARK   98  A    between atoms: _233  and  _234
REMARK   99  A    between atoms: _233  and  _236
REMARK  100  A    between atoms: _236  and  _237
REMARK  101  A    between atoms: _242  and  _244
REMARK  102  A    between atoms: _244  and  _245
REMARK  103  A    between atoms: _244  and  _247
REMARK  104  A    between atoms: _247  and  _248
REMARK  105  A    between atoms: _251  and  _253
REMARK  106  A    between atoms: _253  and  _254
REMARK  107  A    between atoms: _253  and  _256
REMARK  108  A    between atoms: _256  and  _257
REMARK  109  A    between atoms: _260  and  _262
REMARK  110  A    between atoms: _262  and  _263
REMARK  111  A    between atoms: _265  and  _267
REMARK  112  A    between atoms: _267  and  _268
REMARK  113  A    between atoms: _267  and  _270
REMARK  114  A    between atoms: _270  and  _271
REMARK  115  A    between atoms: _271  and  _272
REMARK  116  A    between atoms: _272  and  _273
REMARK  117  A    between atoms: _282  and  _284
REMARK  118  A    between atoms: _284  and  _285
REMARK  119  A    between atoms: _284  and  _287
REMARK  120  A    between atoms: _287  and  _288
REMARK  121  A    between atoms: _288  and  _289
REMARK  122  A    between atoms: _289  and  _290
REMARK  123  A    between atoms: _299  and  _301
REMARK  124  A    between atoms: _301  and  _302
REMARK  125  A    between atoms: _301  and  _304
REMARK  126  A    between atoms: _304  and  _305
REMARK  127  A    between atoms: _308  and  _310
REMARK  128  A    between atoms: _310  and  _311
REMARK  129  A    between atoms: _310  and  _313
REMARK  130  A    between atoms: _313  and  _314
REMARK  131  A    between atoms: _317  and  _319
REMARK  132  A    between atoms: _319  and  _320
REMARK  133  A    between atoms: _319  and  _322
REMARK  134  A    between atoms: _322  and  _323
REMARK  135  A    between atoms: _326  and  _328
REMARK  136  A    between atoms: _328  and  _329
REMARK  137  A    between atoms: _328  and  _331
REMARK  138  A    between atoms: _331  and  _332
REMARK  139  A    between atoms: _335  and  _337
REMARK  140  A    between atoms: _337  and  _338
REMARK  141  A    between atoms: _337  and  _340
REMARK  142  A    between atoms: _340  and  _341
REMARK  143  A    between atoms: _344  and  _346
REMARK  144  A    between atoms: _346  and  _347
REMARK  145  A    between atoms: _349  and  _351
REMARK  146  A    between atoms: _351  and  _352
REMARK  147  A    between atoms: _355  and  _357
REMARK  148  A    between atoms: _357  and  _358
REMARK  149  A    between atoms: _357  and  _360
REMARK  150  A    between atoms: _360  and  _361
REMARK  151  A    between atoms: _364  and  _366
REMARK  152  A    between atoms: _366  and  _367
REMARK  153  A    between atoms: _366  and  _369
REMARK  154  A    between atoms: _369  and  _370
REMARK  155  A    between atoms: _373  and  _375
REMARK  156  A    between atoms: _375  and  _376
REMARK  157  A    between atoms: _375  and  _378
REMARK  158  A    between atoms: _378  and  _379
REMARK  159  A    between atoms: _382  and  _384
REMARK  160  A    between atoms: _384  and  _385
REMARK  161  A    between atoms: _384  and  _387
REMARK  162  A    between atoms: _390  and  _392
REMARK  163  A    between atoms: _392  and  _393
REMARK  164  A    between atoms: _392  and  _395
REMARK  165  A    between atoms: _395  and  _396
REMARK  166  A    between atoms: _396  and  _397
REMARK  167  A    between atoms: _397  and  _398
REMARK  168  A    between atoms: _398  and  _399
REMARK  169  A    between atoms: _403  and  _405
REMARK  170  A    between atoms: _405  and  _406
REMARK  171  A    between atoms: _405  and  _408
REMARK  172  A    between atoms: _408  and  _409
REMARK  173  A    between atoms: _409  and  _410
REMARK  174  A    between atoms: _412  and  _414
REMARK  175  A    between atoms: _414  and  _415
REMARK  176  A    between atoms: _414  and  _417
REMARK  177  A    between atoms: _417  and  _418
REMARK  178  A    between atoms: _421  and  _423
REMARK  179  A    between atoms: _423  and  _424
REMARK  180  A    between atoms: _426  and  _428
REMARK  181  A    between atoms: _428  and  _429
REMARK  182  A    between atoms: _431  and  _433
REMARK  183  A    between atoms: _433  and  _434
REMARK  184  A    between atoms: _433  and  _436
REMARK  185  A    between atoms: _436  and  _437
REMARK  186  A    between atoms: _440  and  _442
REMARK  187  A    between atoms: _442  and  _443
REMARK  188  A    between atoms: _445  and  _447
REMARK  189  A    between atoms: _447  and  _448
REMARK  190  A    between atoms: _450  and  _452
REMARK  191  A    between atoms: _452  and  _453
REMARK  192  A    between atoms: _452  and  _455
REMARK  193  A    between atoms: _455  and  _456
REMARK  194  A    between atoms: _462  and  _464
REMARK  195  A    between atoms: _464  and  _465
REMARK  196  A    between atoms: _464  and  _467
REMARK  197  A    between atoms: _467  and  _468
REMARK  198  A    between atoms: _471  and  _473
REMARK  199  A    between atoms: _473  and  _474
REMARK  200  A    between atoms: _473  and  _476
REMARK  201  A    between atoms: _479  and  _481
REMARK  202  A    between atoms: _481  and  _482
REMARK  203  A    between atoms: _481  and  _484
REMARK  204  A    between atoms: _484  and  _485
REMARK  205  A    between atoms: _489  and  _490
REMARK  206  A    between atoms: _495  and  _497
REMARK  207  A    between atoms: _497  and  _498
REMARK  208  A    between atoms: _497  and  _500
REMARK  209  A    between atoms: _500  and  _501
REMARK  210  A    between atoms: _505  and  _506
REMARK  211  A    between atoms: _511  and  _513
REMARK  212  A    between atoms: _513  and  _514
REMARK  213  A    between atoms: _513  and  _516
REMARK  214  A    between atoms: _519  and  _521
REMARK  215  A    between atoms: _521  and  _522
REMARK  216  A    between atoms: _521  and  _524
REMARK  217  A    between atoms: _524  and  _525
REMARK  218  A    between atoms: _530  and  _532
REMARK  219  A    between atoms: _532  and  _533
REMARK  220  A    between atoms: _532  and  _535
REMARK  221  A    between atoms: _535  and  _536
REMARK  222  A    between atoms: _539  and  _541
REMARK  223  A    between atoms: _541  and  _542
REMARK  224  A    between atoms: _541  and  _544
REMARK  225  A    between atoms: _544  and  _545
REMARK  226  A    between atoms: _548  and  _550
REMARK  227  A    between atoms: _550  and  _551
REMARK  228  A    between atoms: _553  and  _555
REMARK  229  A    between atoms: _555  and  _556
REMARK  230  A    between atoms: _555  and  _558
REMARK  231  A    between atoms: _558  and  _559
REMARK  232  A    between atoms: _559  and  _560
REMARK  233  A    between atoms: _560  and  _561
REMARK                            x       y       z     vdW  Elec       q    Type
REMARK                         _______ _______ _______ _____ _____    ______ ____
ROOT
ATOM      1  C   GLY A   5      12.566  18.520   9.117  0.00  0.00    +0.243 C 
ATOM      2  O   GLY A   5      12.803  17.831  10.115  0.00  0.00    -0.273 OA
ATOM      3  N   ILE A   6      11.893  19.661   9.174  0.00  0.00    -0.297 N 
ATOM      4  H   ILE A   6      11.706  20.193   8.300  0.00  0.00    +0.150 HD
ENDROOT
BRANCH   3   5
ATOM      5  CA  ILE A   6      11.413  20.176  10.447  0.00  0.00    +0.149 C 
BRANCH   5   6
ATOM      6  C   ILE A   6      10.297  19.301  11.032  0.00  0.00    +0.241 C 
ATOM      7  O   ILE A   6      10.139  19.217  12.246  0.00  0.00    -0.273 OA
ATOM      8  N   GLY A   7       9.538  18.634  10.167  0.00  0.00    -0.295 N 
ATOM      9  H   GLY A   7       9.728  18.707   9.147  0.00  0.00    +0.150 HD
BRANCH   8  10
ATOM     10  CA  GLY A   7       8.446  17.804  10.642  0.00  0.00    +0.176 C 
BRANCH  10  11
ATOM     11  C   GLY A   7       8.749  16.324  10.801  0.00  0.00    +0.243 C 
ATOM     12  O   GLY A   7       7.875  15.553  11.192  0.00  0.00    -0.273 OA
ATOM     13  N   GLY A   8       9.980  15.924  10.509  0.00  0.00    -0.295 N 
ATOM     14  H   GLY A   8      10.690  16.616  10.194  0.00  0.00    +0.150 HD
BRANCH  13  15
ATOM     15  CA  GLY A   8      10.338  14.523  10.628  0.00  0.00    +0.176 C 
BRANCH  15  16
ATOM     16  C   GLY A   8      11.086  14.038   9.403  0.00  0.00    +0.243 C 
ATOM     17  N   PHE A   9      11.152  12.727   9.215  0.00  0.00    -0.297 N 
ATOM     18  H   PHE A   9      10.692  12.085   9.892  0.00  0.00    +0.150 HD
ATOM     19  O   GLY A   8      11.599  14.839   8.629  0.00  0.00    -0.273 OA
BRANCH  17  20
ATOM     20  CA  PHE A   9      11.863  12.178   8.068  0.00  0.00    +0.153 C 
BRANCH  20  21
ATOM     21  C   PHE A   9      10.932  11.664   6.997  0.00  0.00    +0.241 C 
ATOM     22  O   PHE A   9       9.771  11.343   7.260  0.00  0.00    -0.273 OA
ATOM     23  N   ILE A  10      11.440  11.620   5.774  0.00  0.00    -0.298 N 
ATOM     24  H   ILE A  10      12.410  11.959   5.615  0.00  0.00    +0.150 HD
BRANCH  23  25
ATOM     25  CA  ILE A  10      10.676  11.111   4.654  0.00  0.00    +0.137 C 
BRANCH  25  26
ATOM     26  C   ILE A  10      11.604  10.267   3.795  0.00  0.00    +0.227 C 
ATOM     27  O   ILE A  10      12.805  10.525   3.715  0.00  0.00    -0.286 OA
ENDBRANCH  25  26
BRANCH  25  28
ATOM     28  CB  ILE A  10      10.074  12.242   3.781  0.00  0.00    +0.026 C 
ATOM     29  CG2 ILE A  10       9.105  13.076   4.612  0.00  0.00    +0.002 C 
BRANCH  28  30
ATOM     30  CG1 ILE A  10      11.189  13.108   3.189  0.00  0.00    +0.002 C 
ATOM     31  CD1 ILE A  10      10.705  14.100   2.141  0.00  0.00    +0.000 C 
ENDBRANCH  28  30
ENDBRANCH  25  28
ENDBRANCH  23  25
ENDBRANCH  20  21
BRANCH  20  32
ATOM     32  CB  PHE A   9      12.803  11.052   8.507  0.00  0.00    +0.055 C 
BRANCH  32  33
ATOM     33  CG  PHE A   9      13.956  11.523   9.343  0.00  0.00    -0.020 A 
ATOM     34  CD2 PHE A   9      13.761  11.920  10.658  0.00  0.00    -0.004 A 
ATOM     35  CE2 PHE A   9      14.821  12.413  11.421  0.00  0.00    -0.000 A 
ATOM     36  CZ  PHE A   9      16.088  12.509  10.865  0.00  0.00    -0.000 A 
ATOM     37  CE1 PHE A   9      16.296  12.111   9.552  0.00  0.00    -0.000 A 
ATOM     38  CD1 PHE A   9      15.232  11.620   8.798  0.00  0.00    -0.004 A 
ENDBRANCH  32  33
ENDBRANCH  20  32
ENDBRANCH  17  20
ENDBRANCH  15  16
ENDBRANCH  13  15
ENDBRANCH  10  11
ENDBRANCH   8  10
ENDBRANCH   5   6
BRANCH   5  39
ATOM     39  CB  ILE A   6      10.898  21.631  10.295  0.00  0.00    +0.027 C 
ATOM     40  CG2 ILE A   6       9.588  21.646   9.512  0.00  0.00    +0.002 C 
BRANCH  39  41
ATOM     41  CG1 ILE A   6      10.697  22.255  11.677  0.00  0.00    +0.002 C 
ATOM     42  CD1 ILE A   6      10.395  23.746  11.641  0.00  0.00    +0.000 C 
ENDBRANCH  39  41
ENDBRANCH   5  39
ENDBRANCH   3   5
BRANCH   1  43
ATOM     43  CA  GLY A   5      13.027  18.062   7.753  0.00  0.00    +0.176 C 
BRANCH  43  45
ATOM     44  C   GLY A   4      14.711  16.342   7.573  0.00  0.00    +0.243 C 
ATOM     45  N   GLY A   5      13.488  16.703   7.928  0.00  0.00    -0.295 N 
ATOM     46  H   GLY A   5      12.847  15.996   8.341  0.00  0.00    +0.150 HD
ATOM     47  O   GLY A   4      15.516  17.108   7.035  0.00  0.00    -0.273 OA
BRANCH  44  48
ATOM     48  CA  GLY A   4      15.062  14.896   7.841  0.00  0.00    +0.176 C 
BRANCH  48  50
ATOM     49  C   ILE A   3      15.280  13.490   5.906  0.00  0.00    +0.241 C 
ATOM     50  N   GLY A   4      15.850  14.309   6.780  0.00  0.00    -0.295 N 
ATOM     51  H   GLY A   4      16.863  14.529   6.702  0.00  0.00    +0.150 HD
ATOM     52  O   ILE A   3      14.084  13.190   5.942  0.00  0.00    -0.273 OA
BRANCH  49  53
ATOM     53  CA  ILE A   3      16.199  12.913   4.842  0.00  0.00    +0.149 C 
BRANCH  53  56
ATOM     54  C   MET A   2      16.645  10.540   4.706  0.00  0.00    +0.241 C 
ATOM     55  O   MET A   2      17.844  10.710   4.938  0.00  0.00    -0.273 OA
ATOM     56  N   ILE A   3      15.779  11.540   4.606  0.00  0.00    -0.297 N 
ATOM     57  H   ILE A   3      14.789  11.340   4.356  0.00  0.00    +0.150 HD
BRANCH  54  58
ATOM     58  CA  MET A   2      16.107   9.141   4.473  0.00  0.00    +0.149 C 
BRANCH  58  60
ATOM     59  C   LYS A   1      16.612   8.426   2.212  0.00  0.00    +0.238 C 
ATOM     60  N   MET A   2      16.986   8.574   3.470  0.00  0.00    -0.297 N 
ATOM     61  H   MET A   2      17.942   8.274   3.750  0.00  0.00    +0.150 HD
ATOM     62  O   LYS A   1      15.486   8.686   1.808  0.00  0.00    -0.274 OA
BRANCH  59  63
ATOM     63  CA  LYS A   1      17.665   7.860   1.287  0.00  0.00    +0.145 C 
BRANCH  63  64
ATOM     64  N   LYS A   1      17.057   6.901   0.391  0.00  0.00    -0.238 NA
ATOM     65  H   LYS A   1      16.034   6.940   0.209  0.00  0.00    +0.142 HD
ENDBRANCH  63  64
BRANCH  63  66
ATOM     66  CB  LYS A   1      18.356   9.005   0.536  0.00  0.00    +0.026 C 
BRANCH  66  67
ATOM     67  CG  LYS A   1      19.145   9.893   1.498  0.00  0.00    -0.000 C 
BRANCH  67  68
ATOM     68  CD  LYS A   1      19.991  10.946   0.830  0.00  0.00    -0.024 C 
BRANCH  68  69
ATOM     69  CE  LYS A   1      20.864  11.629   1.881  0.00  0.00    -0.086 C 
BRANCH  69  70
ATOM     70  NZ  LYS A   1      21.743  12.695   1.322  0.00  0.00    +0.380 N 
ATOM     71  HZ1 LYS A   1      22.307  13.115   2.088  0.00  0.00    -0.089 HD
ATOM     72  HZ2 LYS A   1      21.156  13.430   0.879  0.00  0.00    -0.089 HD
ATOM     73  HZ3 LYS A   1      22.378  12.281   0.610  0.00  0.00    -0.089 HD
ENDBRANCH  69  70
ENDBRANCH  68  69
ENDBRANCH  67  68
ENDBRANCH  66  67
ENDBRANCH  63  66
ENDBRANCH  59  63
ENDBRANCH  58  60
BRANCH  58  74
ATOM     74  CB  MET A   2      16.199   8.345   5.772  0.00  0.00    +0.041 C 
BRANCH  74  75
ATOM     75  CG  MET A   2      15.599   6.963   5.693  0.00  0.00    +0.060 C 
BRANCH  75  76
ATOM     76  SD  MET A   2      13.822   7.085   5.514  0.00  0.00    -0.139 S 
ATOM     77  CE  MET A   2      13.344   7.338   7.234  0.00  0.00    +0.069 C 
ENDBRANCH  75  76
ENDBRANCH  74  75
ENDBRANCH  58  74
ENDBRANCH  54  58
ENDBRANCH  53  56
BRANCH  53  78
ATOM     78  CB  ILE A   3      16.121  13.791   3.557  0.00  0.00    +0.027 C 
ATOM     79  CG2 ILE A   3      17.085  13.258   2.502  0.00  0.00    +0.002 C 
BRANCH  78  80
ATOM     80  CG1 ILE A   3      14.690  13.828   3.022  0.00  0.00    +0.002 C 
ATOM     81  CD1 ILE A   3      14.510  14.747   1.812  0.00  0.00    +0.000 C 
ENDBRANCH  78  80
ENDBRANCH  53  78
ENDBRANCH  49  53
ENDBRANCH  48  50
ENDBRANCH  44  48
ENDBRANCH  43  45
ENDBRANCH   1  43
TORSDOF 36
REMARK  Name = ../refined-set-2016/1ec1/1ec1_pocket.pdb
REMARK  233 active torsions:
REMARK  status: ('A' for Active; 'I' for Inactive)
REMARK    1  A    between atoms: _1  and  _3
REMARK    2  A    between atoms: _3  and  _4
REMARK    3  A    between atoms: _3  and  _6
REMARK    4  A    between atoms: _6  and  _7
REMARK    5  A    between atoms: _7  and  _8
REMARK    6  A    between atoms: _8  and  _9
REMARK    7  A    between atoms: _18  and  _20
REMARK    8  A    between atoms: _20  and  _21
REMARK    9  A    between atoms: _20  and  _23
REMARK   10  A    between atoms: _23  and  _24
REMARK   11  A    between atoms: _27  and  _29
REMARK   12  A    between atoms: _29  and  _30
REMARK   13  A    between atoms: _29  and  _32
REMARK   14  A    between atoms: _32  and  _33
REMARK   15  A    between atoms: _36  and  _38
REMARK   16  A    between atoms: _38  and  _39
REMARK   17  A    between atoms: _38  and  _41
REMARK   18  A    between atoms: _41  and  _42
REMARK   19  A    between atoms: _45  and  _47
REMARK   20  A    between atoms: _47  and  _48
REMARK   21  A    between atoms: _47  and  _50
REMARK   22  A    between atoms: _50  and  _51
REMARK   23  A    between atoms: _54  and  _56
REMARK   24  A    between atoms: _56  and  _57
REMARK   25  A    between atoms: _56  and  _59
REMARK   26  A    between atoms: _59  and  _60
REMARK   27  A    between atoms: _63  and  _65
REMARK   28  A    between atoms: _65  and  _66
REMARK   29  A    between atoms: _68  and  _70
REMARK   30  A    between atoms: _70  and  _71
REMARK   31  A    between atoms: _74  and  _76
REMARK   32  A    between atoms: _76  and  _77
REMARK   33  A    between atoms: _76  and  _79
REMARK   34  A    between atoms: _79  and  _80
REMARK   35  A    between atoms: _83  and  _85
REMARK   36  A    between atoms: _85  and  _86
REMARK   37  A    between atoms: _85  and  _88
REMARK   38  A    between atoms: _88  and  _89
REMARK   39  A    between atoms: _92  and  _94
REMARK   40  A    between atoms: _94  and  _95
REMARK   41  A    between atoms: _94  and  _97
REMARK   42  A    between atoms: _97  and  _98
REMARK   43  A    between atoms: _101  and  _103
REMARK   44  A    between atoms: _103  and  _104
REMARK   45  A    between atoms: _103  and  _106
REMARK   46  A    between atoms: _109  and  _111
REMARK   47  A    between atoms: _111  and  _112
REMARK   48  A    between atoms: _111  and  _114
REMARK   49  A    between atoms: _114  and  _115
REMARK   50  A    between atoms: _115  and  _116
REMARK   51  A    between atoms: _116  and  _117
REMARK   52  A    between atoms: _117  and  _118
REMARK   53  A    between atoms: _122  and  _124
REMARK   54  A    between atoms: _124  and  _125
REMARK   55  A    between atoms: _124  and  _127
REMARK   56  A    between atoms: _127  and  _128
REMARK   57  A    between atoms: _128  and  _129
REMARK   58  A    between atoms: _131  and  _133
REMARK   59  A    between atoms: _133  and  _134
REMARK   60  A    between atoms: _133  and  _136
REMARK   61  A    between atoms: _136  and  _137
REMARK   62  A    between atoms: _140  and  _142
REMARK   63  A    between atoms: _142  and  _143
REMARK   64  A    between atoms: _145  and  _147
REMARK   65  A    between atoms: _147  and  _148
REMARK   66  A    between atoms: _150  and  _152
REMARK   67  A    between atoms: _152  and  _153
REMARK   68  A    between atoms: _152  and  _155
REMARK   69  A    between atoms: _155  and  _156
REMARK   70  A    between atoms: _159  and  _161
REMARK   71  A    between atoms: _161  and  _162
REMARK   72  A    between atoms: _164  and  _166
REMARK   73  A    between atoms: _166  and  _167
REMARK   74  A    between atoms: _169  and  _171
REMARK   75  A    between atoms: _171  and  _172
REMARK   76  A    between atoms: _171  and  _174
REMARK   77  A    between atoms: _174  and  _175
REMARK   78  A    between atoms: _181  and  _183
REMARK   79  A    between atoms: _183  and  _184
REMARK   80  A    between atoms: _183  and  _186
REMARK   81  A    between atoms: _186  and  _187
REMARK   82  A    between atoms: _190  and  _192
REMARK   83  A    between atoms: _192  and  _193
REMARK   84  A    between atoms: _192  and  _195
REMARK   85  A    between atoms: _198  and  _200
REMARK   86  A    between atoms: _200  and  _201
REMARK   87  A    between atoms: _200  and  _203
REMARK   88  A    between atoms: _203  and  _204
REMARK   89  A    between atoms: _207  and  _209
REMARK   90  A    between atoms: _209  and  _210
REMARK   91  A    between atoms: _209  and  _212
REMARK   92  A    between atoms: _212  and  _213
REMARK   93  A    between atoms: _217  and  _218
REMARK   94  A    between atoms: _223  and  _225
REMARK   95  A    between atoms: _225  and  _226
REMARK   96  A    between atoms: _225  and  _228
REMARK   97  A    between atoms: _231  and  _233
REMARK   98  A    between atoms: _233  and  _234
REMARK   99  A    between atoms: _233  and  _236
REMARK  100  A    between atoms: _236  and  _237
REMARK  101  A    between atoms: _242  and  _244
REMARK  102  A    between atoms: _244  and  _245
REMARK  103  A    between atoms: _244  and  _247
REMARK  104  A    between atoms: _247  and  _248
REMARK  105  A    between atoms: _251  and  _253
REMARK  106  A    between atoms: _253  and  _254
REMARK  107  A    between atoms: _253  and  _256
REMARK  108  A    between atoms: _256  and  _257
REMARK  109  A    between atoms: _260  and  _262
REMARK  110  A    between atoms: _262  and  _263
REMARK  111  A    between atoms: _265  and  _267
REMARK  112  A    between atoms: _267  and  _268
REMARK  113  A    between atoms: _267  and  _270
REMARK  114  A    between atoms: _270  and  _271
REMARK  115  A    between atoms: _271  and  _272
REMARK  116  A    between atoms: _272  and  _273
REMARK  117  A    between atoms: _282  and  _284
REMARK  118  A    between atoms: _284  and  _285
REMARK  119  A    between atoms: _284  and  _287
REMARK  120  A    between atoms: _287  and  _288
REMARK  121  A    between atoms: _288  and  _289
REMARK  122  A    between atoms: _289  and  _290
REMARK  123  A    between atoms: _299  and  _301
REMARK  124  A    between atoms: _301  and  _302
REMARK  125  A    between atoms: _301  and  _304
REMARK  126  A    between atoms: _304  and  _305
REMARK  127  A    between atoms: _308  and  _310
REMARK  128  A    between atoms: _310  and  _311
REMARK  129  A    between atoms: _310  and  _313
REMARK  130  A    between atoms: _313  and  _314
REMARK  131  A    between atoms: _317  and  _319
REMARK  132  A    between atoms: _319  and  _320
REMARK  133  A    between atoms: _319  and  _322
REMARK  134  A    between atoms: _322  and  _323
REMARK  135  A    between atoms: _326  and  _328
REMARK  136  A    between atoms: _328  and  _329
REMARK  137  A    between atoms: _328  and  _331
REMARK  138  A    between atoms: _331  and  _332
REMARK  139  A    between atoms: _335  and  _337
REMARK  140  A    between atoms: _337  and  _338
REMARK  141  A    between atoms: _337  and  _340
REMARK  142  A    between atoms: _340  and  _341
REMARK  143  A    between atoms: _344  and  _346
REMARK  144  A    between atoms: _346  and  _347
REMARK  145  A    between atoms: _349  and  _351
REMARK  146  A    between atoms: _351  and  _352
REMARK  147  A    between atoms: _355  and  _357
REMARK  148  A    between atoms: _357  and  _358
REMARK  149  A    between atoms: _357  and  _360
REMARK  150  A    between atoms: _360  and  _361
REMARK  151  A    between atoms: _364  and  _366
REMARK  152  A    between atoms: _366  and  _367
REMARK  153  A    between atoms: _366  and  _369
REMARK  154  A    between atoms: _369  and  _370
REMARK  155  A    between atoms: _373  and  _375
REMARK  156  A    between atoms: _375  and  _376
REMARK  157  A    between atoms: _375  and  _378
REMARK  158  A    between atoms: _378  and  _379
REMARK  159  A    between atoms: _382  and  _384
REMARK  160  A    between atoms: _384  and  _385
REMARK  161  A    between atoms: _384  and  _387
REMARK  162  A    between atoms: _390  and  _392
REMARK  163  A    between atoms: _392  and  _393
REMARK  164  A    between atoms: _392  and  _395
REMARK  165  A    between atoms: _395  and  _396
REMARK  166  A    between atoms: _396  and  _397
REMARK  167  A    between atoms: _397  and  _398
REMARK  168  A    between atoms: _398  and  _399
REMARK  169  A    between atoms: _403  and  _405
REMARK  170  A    between atoms: _405  and  _406
REMARK  171  A    between atoms: _405  and  _408
REMARK  172  A    between atoms: _408  and  _409
REMARK  173  A    between atoms: _409  and  _410
REMARK  174  A    between atoms: _412  and  _414
REMARK  175  A    between atoms: _414  and  _415
REMARK  176  A    between atoms: _414  and  _417
REMARK  177  A    between atoms: _417  and  _418
REMARK  178  A    between atoms: _421  and  _423
REMARK  179  A    between atoms: _423  and  _424
REMARK  180  A    between atoms: _426  and  _428
REMARK  181  A    between atoms: _428  and  _429
REMARK  182  A    between atoms: _431  and  _433
REMARK  183  A    between atoms: _433  and  _434
REMARK  184  A    between atoms: _433  and  _436
REMARK  185  A    between atoms: _436  and  _437
REMARK  186  A    between atoms: _440  and  _442
REMARK  187  A    between atoms: _442  and  _443
REMARK  188  A    between atoms: _445  and  _447
REMARK  189  A    between atoms: _447  and  _448
REMARK  190  A    between atoms: _450  and  _452
REMARK  191  A    between atoms: _452  and  _453
REMARK  192  A    between atoms: _452  and  _455
REMARK  193  A    between atoms: _455  and  _456
REMARK  194  A    between atoms: _462  and  _464
REMARK  195  A    between atoms: _464  and  _465
REMARK  196  A    between atoms: _464  and  _467
REMARK  197  A    between atoms: _467  and  _468
REMARK  198  A    between atoms: _471  and  _473
REMARK  199  A    between atoms: _473  and  _474
REMARK  200  A    between atoms: _473  and  _476
REMARK  201  A    between atoms: _479  and  _481
REMARK  202  A    between atoms: _481  and  _482
REMARK  203  A    between atoms: _481  and  _484
REMARK  204  A    between atoms: _484  and  _485
REMARK  205  A    between atoms: _489  and  _490
REMARK  206  A    between atoms: _495  and  _497
REMARK  207  A    between atoms: _497  and  _498
REMARK  208  A    between atoms: _497  and  _500
REMARK  209  A    between atoms: _500  and  _501
REMARK  210  A    between atoms: _505  and  _506
REMARK  211  A    between atoms: _511  and  _513
REMARK  212  A    between atoms: _513  and  _514
REMARK  213  A    between atoms: _513  and  _516
REMARK  214  A    between atoms: _519  and  _521
REMARK  215  A    between atoms: _521  and  _522
REMARK  216  A    between atoms: _521  and  _524
REMARK  217  A    between atoms: _524  and  _525
REMARK  218  A    between atoms: _530  and  _532
REMARK  219  A    between atoms: _532  and  _533
REMARK  220  A    between atoms: _532  and  _535
REMARK  221  A    between atoms: _535  and  _536
REMARK  222  A    between atoms: _539  and  _541
REMARK  223  A    between atoms: _541  and  _542
REMARK  224  A    between atoms: _541  and  _544
REMARK  225  A    between atoms: _544  and  _545
REMARK  226  A    between atoms: _548  and  _550
REMARK  227  A    between atoms: _550  and  _551
REMARK  228  A    between atoms: _553  and  _555
REMARK  229  A    between atoms: _555  and  _556
REMARK  230  A    between atoms: _555  and  _558
REMARK  231  A    between atoms: _558  and  _559
REMARK  232  A    between atoms: _559  and  _560
REMARK  233  A    between atoms: _560  and  _561
REMARK                            x       y       z     vdW  Elec       q    Type
REMARK                         _______ _______ _______ _____ _____    ______ ____
ROOT
ATOM      1  CA  VAL A   1      13.074   9.675  -1.013  0.00  0.00    +0.133 C 
ENDROOT
BRANCH   1   2
ATOM      2  CB  VAL A   1      13.769  11.054  -0.955  0.00  0.00    +0.023 C 
ATOM      3  CG2 VAL A   1      12.948  12.008  -0.100  0.00  0.00    +0.002 C 
ATOM      4  CG1 VAL A   1      15.185  10.906  -0.393  0.00  0.00    +0.002 C 
ENDBRANCH   1   2
BRANCH   1   5
ATOM      5  N   VAL A   1      12.976   9.076   0.309  0.00  0.00    -0.239 NA
ATOM      6  H   VAL A   1      13.827   8.682   0.759  0.00  0.00    +0.142 HD
ENDBRANCH   1   5
BRANCH   1   7
ATOM      7  C   VAL A   1      13.865   8.769  -1.933  0.00  0.00    +0.224 C 
ATOM      8  O   VAL A   1      14.556   7.860  -1.479  0.00  0.00    -0.287 OA
ENDBRANCH   1   7
TORSDOF 3
REMARK  Name = ../refined-set-2016/1ec1/1ec1_pocket.pdb
REMARK  233 active torsions:
REMARK  status: ('A' for Active; 'I' for Inactive)
REMARK    1  A    between atoms: _1  and  _3
REMARK    2  A    between atoms: _3  and  _4
REMARK    3  A    between atoms: _3  and  _6
REMARK    4  A    between atoms: _6  and  _7
REMARK    5  A    between atoms: _7  and  _8
REMARK    6  A    between atoms: _8  and  _9
REMARK    7  A    between atoms: _18  and  _20
REMARK    8  A    between atoms: _20  and  _21
REMARK    9  A    between atoms: _20  and  _23
REMARK   10  A    between atoms: _23  and  _24
REMARK   11  A    between atoms: _27  and  _29
REMARK   12  A    between atoms: _29  and  _30
REMARK   13  A    between atoms: _29  and  _32
REMARK   14  A    between atoms: _32  and  _33
REMARK   15  A    between atoms: _36  and  _38
REMARK   16  A    between atoms: _38  and  _39
REMARK   17  A    between atoms: _38  and  _41
REMARK   18  A    between atoms: _41  and  _42
REMARK   19  A    between atoms: _45  and  _47
REMARK   20  A    between atoms: _47  and  _48
REMARK   21  A    between atoms: _47  and  _50
REMARK   22  A    between atoms: _50  and  _51
REMARK   23  A    between atoms: _54  and  _56
REMARK   24  A    between atoms: _56  and  _57
REMARK   25  A    between atoms: _56  and  _59
REMARK   26  A    between atoms: _59  and  _60
REMARK   27  A    between atoms: _63  and  _65
REMARK   28  A    between atoms: _65  and  _66
REMARK   29  A    between atoms: _68  and  _70
REMARK   30  A    between atoms: _70  and  _71
REMARK   31  A    between atoms: _74  and  _76
REMARK   32  A    between atoms: _76  and  _77
REMARK   33  A    between atoms: _76  and  _79
REMARK   34  A    between atoms: _79  and  _80
REMARK   35  A    between atoms: _83  and  _85
REMARK   36  A    between atoms: _85  and  _86
REMARK   37  A    between atoms: _85  and  _88
REMARK   38  A    between atoms: _88  and  _89
REMARK   39  A    between atoms: _92  and  _94
REMARK   40  A    between atoms: _94  and  _95
REMARK   41  A    between atoms: _94  and  _97
REMARK   42  A    between atoms: _97  and  _98
REMARK   43  A    between atoms: _101  and  _103
REMARK   44  A    between atoms: _103  and  _104
REMARK   45  A    between atoms: _103  and  _106
REMARK   46  A    between atoms: _109  and  _111
REMARK   47  A    between atoms: _111  and  _112
REMARK   48  A    between atoms: _111  and  _114
REMARK   49  A    between atoms: _114  and  _115
REMARK   50  A    between atoms: _115  and  _116
REMARK   51  A    between atoms: _116  and  _117
REMARK   52  A    between atoms: _117  and  _118
REMARK   53  A    between atoms: _122  and  _124
REMARK   54  A    between atoms: _124  and  _125
REMARK   55  A    between atoms: _124  and  _127
REMARK   56  A    between atoms: _127  and  _128
REMARK   57  A    between atoms: _128  and  _129
REMARK   58  A    between atoms: _131  and  _133
REMARK   59  A    between atoms: _133  and  _134
REMARK   60  A    between atoms: _133  and  _136
REMARK   61  A    between atoms: _136  and  _137
REMARK   62  A    between atoms: _140  and  _142
REMARK   63  A    between atoms: _142  and  _143
REMARK   64  A    between atoms: _145  and  _147
REMARK   65  A    between atoms: _147  and  _148
REMARK   66  A    between atoms: _150  and  _152
REMARK   67  A    between atoms: _152  and  _153
REMARK   68  A    between atoms: _152  and  _155
REMARK   69  A    between atoms: _155  and  _156
REMARK   70  A    between atoms: _159  and  _161
REMARK   71  A    between atoms: _161  and  _162
REMARK   72  A    between atoms: _164  and  _166
REMARK   73  A    between atoms: _166  and  _167
REMARK   74  A    between atoms: _169  and  _171
REMARK   75  A    between atoms: _171  and  _172
REMARK   76  A    between atoms: _171  and  _174
REMARK   77  A    between atoms: _174  and  _175
REMARK   78  A    between atoms: _181  and  _183
REMARK   79  A    between atoms: _183  and  _184
REMARK   80  A    between atoms: _183  and  _186
REMARK   81  A    between atoms: _186  and  _187
REMARK   82  A    between atoms: _190  and  _192
REMARK   83  A    between atoms: _192  and  _193
REMARK   84  A    between atoms: _192  and  _195
REMARK   85  A    between atoms: _198  and  _200
REMARK   86  A    between atoms: _200  and  _201
REMARK   87  A    between atoms: _200  and  _203
REMARK   88  A    between atoms: _203  and  _204
REMARK   89  A    between atoms: _207  and  _209
REMARK   90  A    between atoms: _209  and  _210
REMARK   91  A    between atoms: _209  and  _212
REMARK   92  A    between atoms: _212  and  _213
REMARK   93  A    between atoms: _217  and  _218
REMARK   94  A    between atoms: _223  and  _225
REMARK   95  A    between atoms: _225  and  _226
REMARK   96  A    between atoms: _225  and  _228
REMARK   97  A    between atoms: _231  and  _233
REMARK   98  A    between atoms: _233  and  _234
REMARK   99  A    between atoms: _233  and  _236
REMARK  100  A    between atoms: _236  and  _237
REMARK  101  A    between atoms: _242  and  _244
REMARK  102  A    between atoms: _244  and  _245
REMARK  103  A    between atoms: _244  and  _247
REMARK  104  A    between atoms: _247  and  _248
REMARK  105  A    between atoms: _251  and  _253
REMARK  106  A    between atoms: _253  and  _254
REMARK  107  A    between atoms: _253  and  _256
REMARK  108  A    between atoms: _256  and  _257
REMARK  109  A    between atoms: _260  and  _262
REMARK  110  A    between atoms: _262  and  _263
REMARK  111  A    between atoms: _265  and  _267
REMARK  112  A    between atoms: _267  and  _268
REMARK  113  A    between atoms: _267  and  _270
REMARK  114  A    between atoms: _270  and  _271
REMARK  115  A    between atoms: _271  and  _272
REMARK  116  A    between atoms: _272  and  _273
REMARK  117  A    between atoms: _282  and  _284
REMARK  118  A    between atoms: _284  and  _285
REMARK  119  A    between atoms: _284  and  _287
REMARK  120  A    between atoms: _287  and  _288
REMARK  121  A    between atoms: _288  and  _289
REMARK  122  A    between atoms: _289  and  _290
REMARK  123  A    between atoms: _299  and  _301
REMARK  124  A    between atoms: _301  and  _302
REMARK  125  A    between atoms: _301  and  _304
REMARK  126  A    between atoms: _304  and  _305
REMARK  127  A    between atoms: _308  and  _310
REMARK  128  A    between atoms: _310  and  _311
REMARK  129  A    between atoms: _310  and  _313
REMARK  130  A    between atoms: _313  and  _314
REMARK  131  A    between atoms: _317  and  _319
REMARK  132  A    between atoms: _319  and  _320
REMARK  133  A    between atoms: _319  and  _322
REMARK  134  A    between atoms: _322  and  _323
REMARK  135  A    between atoms: _326  and  _328
REMARK  136  A    between atoms: _328  and  _329
REMARK  137  A    between atoms: _328  and  _331
REMARK  138  A    between atoms: _331  and  _332
REMARK  139  A    between atoms: _335  and  _337
REMARK  140  A    between atoms: _337  and  _338
REMARK  141  A    between atoms: _337  and  _340
REMARK  142  A    between atoms: _340  and  _341
REMARK  143  A    between atoms: _344  and  _346
REMARK  144  A    between atoms: _346  and  _347
REMARK  145  A    between atoms: _349  and  _351
REMARK  146  A    between atoms: _351  and  _352
REMARK  147  A    between atoms: _355  and  _357
REMARK  148  A    between atoms: _357  and  _358
REMARK  149  A    between atoms: _357  and  _360
REMARK  150  A    between atoms: _360  and  _361
REMARK  151  A    between atoms: _364  and  _366
REMARK  152  A    between atoms: _366  and  _367
REMARK  153  A    between atoms: _366  and  _369
REMARK  154  A    between atoms: _369  and  _370
REMARK  155  A    between atoms: _373  and  _375
REMARK  156  A    between atoms: _375  and  _376
REMARK  157  A    between atoms: _375  and  _378
REMARK  158  A    between atoms: _378  and  _379
REMARK  159  A    between atoms: _382  and  _384
REMARK  160  A    between atoms: _384  and  _385
REMARK  161  A    between atoms: _384  and  _387
REMARK  162  A    between atoms: _390  and  _392
REMARK  163  A    between atoms: _392  and  _393
REMARK  164  A    between atoms: _392  and  _395
REMARK  165  A    between atoms: _395  and  _396
REMARK  166  A    between atoms: _396  and  _397
REMARK  167  A    between atoms: _397  and  _398
REMARK  168  A    between atoms: _398  and  _399
REMARK  169  A    between atoms: _403  and  _405
REMARK  170  A    between atoms: _405  and  _406
REMARK  171  A    between atoms: _405  and  _408
REMARK  172  A    between atoms: _408  and  _409
REMARK  173  A    between atoms: _409  and  _410
REMARK  174  A    between atoms: _412  and  _414
REMARK  175  A    between atoms: _414  and  _415
REMARK  176  A    between atoms: _414  and  _417
REMARK  177  A    between atoms: _417  and  _418
REMARK  178  A    between atoms: _421  and  _423
REMARK  179  A    between atoms: _423  and  _424
REMARK  180  A    between atoms: _426  and  _428
REMARK  181  A    between atoms: _428  and  _429
REMARK  182  A    between atoms: _431  and  _433
REMARK  183  A    between atoms: _433  and  _434
REMARK  184  A    between atoms: _433  and  _436
REMARK  185  A    between atoms: _436  and  _437
REMARK  186  A    between atoms: _440  and  _442
REMARK  187  A    between atoms: _442  and  _443
REMARK  188  A    between atoms: _445  and  _447
REMARK  189  A    between atoms: _447  and  _448
REMARK  190  A    between atoms: _450  and  _452
REMARK  191  A    between atoms: _452  and  _453
REMARK  192  A    between atoms: _452  and  _455
REMARK  193  A    between atoms: _455  and  _456
REMARK  194  A    between atoms: _462  and  _464
REMARK  195  A    between atoms: _464  and  _465
REMARK  196  A    between atoms: _464  and  _467
REMARK  197  A    between atoms: _467  and  _468
REMARK  198  A    between atoms: _471  and  _473
REMARK  199  A    between atoms: _473  and  _474
REMARK  200  A    between atoms: _473  and  _476
REMARK  201  A    between atoms: _479  and  _481
REMARK  202  A    between atoms: _481  and  _482
REMARK  203  A    between atoms: _481  and  _484
REMARK  204  A    between atoms: _484  and  _485
REMARK  205  A    between atoms: _489  and  _490
REMARK  206  A    between atoms: _495  and  _497
REMARK  207  A    between atoms: _497  and  _498
REMARK  208  A    between atoms: _497  and  _500
REMARK  209  A    between atoms: _500  and  _501
REMARK  210  A    between atoms: _505  and  _506
REMARK  211  A    between atoms: _511  and  _513
REMARK  212  A    between atoms: _513  and  _514
REMARK  213  A    between atoms: _513  and  _516
REMARK  214  A    between atoms: _519  and  _521
REMARK  215  A    between atoms: _521  and  _522
REMARK  216  A    between atoms: _521  and  _524
REMARK  217  A    between atoms: _524  and  _525
REMARK  218  A    between atoms: _530  and  _532
REMARK  219  A    between atoms: _532  and  _533
REMARK  220  A    between atoms: _532  and  _535
REMARK  221  A    between atoms: _535  and  _536
REMARK  222  A    between atoms: _539  and  _541
REMARK  223  A    between atoms: _541  and  _542
REMARK  224  A    between atoms: _541  and  _544
REMARK  225  A    between atoms: _544  and  _545
REMARK  226  A    between atoms: _548  and  _550
REMARK  227  A    between atoms: _550  and  _551
REMARK  228  A    between atoms: _553  and  _555
REMARK  229  A    between atoms: _555  and  _556
REMARK  230  A    between atoms: _555  and  _558
REMARK  231  A    between atoms: _558  and  _559
REMARK  232  A    between atoms: _559  and  _560
REMARK  233  A    between atoms: _560  and  _561
REMARK                            x       y       z     vdW  Elec       q    Type
REMARK                         _______ _______ _______ _____ _____    ______ ____
ROOT
ATOM      1  CA  LEU A   1      16.100  13.368  -4.502  0.00  0.00    +0.133 C 
ENDROOT
BRANCH   1   2
ATOM      2  N   LEU A   1      16.935  14.269  -5.270  0.00  0.00    -0.239 NA
ATOM      3  H   LEU A   1      16.909  15.288  -5.063  0.00  0.00    +0.142 HD
ENDBRANCH   1   2
BRANCH   1   4
ATOM      4  C   LEU A   1      14.671  13.655  -4.923  0.00  0.00    +0.224 C 
ATOM      5  O   LEU A   1      14.302  14.804  -5.156  0.00  0.00    -0.287 OA
ENDBRANCH   1   4
BRANCH   1   6
ATOM      6  CB  LEU A   1      16.260  13.638  -3.010  0.00  0.00    +0.025 C 
BRANCH   6   7
ATOM      7  CG  LEU A   1      17.698  13.686  -2.496  0.00  0.00    +0.002 C 
ATOM      8  CD2 LEU A   1      17.675  13.955  -0.998  0.00  0.00    +0.000 C 
ATOM      9  CD1 LEU A   1      18.418  12.369  -2.810  0.00  0.00    +0.000 C 
ENDBRANCH   6   7
ENDBRANCH   1   6
TORSDOF 4
REMARK  Name = ../refined-set-2016/1ec1/1ec1_pocket.pdb
REMARK  233 active torsions:
REMARK  status: ('A' for Active; 'I' for Inactive)
REMARK    1  A    between atoms: _1  and  _3
REMARK    2  A    between atoms: _3  and  _4
REMARK    3  A    between atoms: _3  and  _6
REMARK    4  A    between atoms: _6  and  _7
REMARK    5  A    between atoms: _7  and  _8
REMARK    6  A    between atoms: _8  and  _9
REMARK    7  A    between atoms: _18  and  _20
REMARK    8  A    between atoms: _20  and  _21
REMARK    9  A    between atoms: _20  and  _23
REMARK   10  A    between atoms: _23  and  _24
REMARK   11  A    between atoms: _27  and  _29
REMARK   12  A    between atoms: _29  and  _30
REMARK   13  A    between atoms: _29  and  _32
REMARK   14  A    between atoms: _32  and  _33
REMARK   15  A    between atoms: _36  and  _38
REMARK   16  A    between atoms: _38  and  _39
REMARK   17  A    between atoms: _38  and  _41
REMARK   18  A    between atoms: _41  and  _42
REMARK   19  A    between atoms: _45  and  _47
REMARK   20  A    between atoms: _47  and  _48
REMARK   21  A    between atoms: _47  and  _50
REMARK   22  A    between atoms: _50  and  _51
REMARK   23  A    between atoms: _54  and  _56
REMARK   24  A    between atoms: _56  and  _57
REMARK   25  A    between atoms: _56  and  _59
REMARK   26  A    between atoms: _59  and  _60
REMARK   27  A    between atoms: _63  and  _65
REMARK   28  A    between atoms: _65  and  _66
REMARK   29  A    between atoms: _68  and  _70
REMARK   30  A    between atoms: _70  and  _71
REMARK   31  A    between atoms: _74  and  _76
REMARK   32  A    between atoms: _76  and  _77
REMARK   33  A    between atoms: _76  and  _79
REMARK   34  A    between atoms: _79  and  _80
REMARK   35  A    between atoms: _83  and  _85
REMARK   36  A    between atoms: _85  and  _86
REMARK   37  A    between atoms: _85  and  _88
REMARK   38  A    between atoms: _88  and  _89
REMARK   39  A    between atoms: _92  and  _94
REMARK   40  A    between atoms: _94  and  _95
REMARK   41  A    between atoms: _94  and  _97
REMARK   42  A    between atoms: _97  and  _98
REMARK   43  A    between atoms: _101  and  _103
REMARK   44  A    between atoms: _103  and  _104
REMARK   45  A    between atoms: _103  and  _106
REMARK   46  A    between atoms: _109  and  _111
REMARK   47  A    between atoms: _111  and  _112
REMARK   48  A    between atoms: _111  and  _114
REMARK   49  A    between atoms: _114  and  _115
REMARK   50  A    between atoms: _115  and  _116
REMARK   51  A    between atoms: _116  and  _117
REMARK   52  A    between atoms: _117  and  _118
REMARK   53  A    between atoms: _122  and  _124
REMARK   54  A    between atoms: _124  and  _125
REMARK   55  A    between atoms: _124  and  _127
REMARK   56  A    between atoms: _127  and  _128
REMARK   57  A    between atoms: _128  and  _129
REMARK   58  A    between atoms: _131  and  _133
REMARK   59  A    between atoms: _133  and  _134
REMARK   60  A    between atoms: _133  and  _136
REMARK   61  A    between atoms: _136  and  _137
REMARK   62  A    between atoms: _140  and  _142
REMARK   63  A    between atoms: _142  and  _143
REMARK   64  A    between atoms: _145  and  _147
REMARK   65  A    between atoms: _147  and  _148
REMARK   66  A    between atoms: _150  and  _152
REMARK   67  A    between atoms: _152  and  _153
REMARK   68  A    between atoms: _152  and  _155
REMARK   69  A    between atoms: _155  and  _156
REMARK   70  A    between atoms: _159  and  _161
REMARK   71  A    between atoms: _161  and  _162
REMARK   72  A    between atoms: _164  and  _166
REMARK   73  A    between atoms: _166  and  _167
REMARK   74  A    between atoms: _169  and  _171
REMARK   75  A    between atoms: _171  and  _172
REMARK   76  A    between atoms: _171  and  _174
REMARK   77  A    between atoms: _174  and  _175
REMARK   78  A    between atoms: _181  and  _183
REMARK   79  A    between atoms: _183  and  _184
REMARK   80  A    between atoms: _183  and  _186
REMARK   81  A    between atoms: _186  and  _187
REMARK   82  A    between atoms: _190  and  _192
REMARK   83  A    between atoms: _192  and  _193
REMARK   84  A    between atoms: _192  and  _195
REMARK   85  A    between atoms: _198  and  _200
REMARK   86  A    between atoms: _200  and  _201
REMARK   87  A    between atoms: _200  and  _203
REMARK   88  A    between atoms: _203  and  _204
REMARK   89  A    between atoms: _207  and  _209
REMARK   90  A    between atoms: _209  and  _210
REMARK   91  A    between atoms: _209  and  _212
REMARK   92  A    between atoms: _212  and  _213
REMARK   93  A    between atoms: _217  and  _218
REMARK   94  A    between atoms: _223  and  _225
REMARK   95  A    between atoms: _225  and  _226
REMARK   96  A    between atoms: _225  and  _228
REMARK   97  A    between atoms: _231  and  _233
REMARK   98  A    between atoms: _233  and  _234
REMARK   99  A    between atoms: _233  and  _236
REMARK  100  A    between atoms: _236  and  _237
REMARK  101  A    between atoms: _242  and  _244
REMARK  102  A    between atoms: _244  and  _245
REMARK  103  A    between atoms: _244  and  _247
REMARK  104  A    between atoms: _247  and  _248
REMARK  105  A    between atoms: _251  and  _253
REMARK  106  A    between atoms: _253  and  _254
REMARK  107  A    between atoms: _253  and  _256
REMARK  108  A    between atoms: _256  and  _257
REMARK  109  A    between atoms: _260  and  _262
REMARK  110  A    between atoms: _262  and  _263
REMARK  111  A    between atoms: _265  and  _267
REMARK  112  A    between atoms: _267  and  _268
REMARK  113  A    between atoms: _267  and  _270
REMARK  114  A    between atoms: _270  and  _271
REMARK  115  A    between atoms: _271  and  _272
REMARK  116  A    between atoms: _272  and  _273
REMARK  117  A    between atoms: _282  and  _284
REMARK  118  A    between atoms: _284  and  _285
REMARK  119  A    between atoms: _284  and  _287
REMARK  120  A    between atoms: _287  and  _288
REMARK  121  A    between atoms: _288  and  _289
REMARK  122  A    between atoms: _289  and  _290
REMARK  123  A    between atoms: _299  and  _301
REMARK  124  A    between atoms: _301  and  _302
REMARK  125  A    between atoms: _301  and  _304
REMARK  126  A    between atoms: _304  and  _305
REMARK  127  A    between atoms: _308  and  _310
REMARK  128  A    between atoms: _310  and  _311
REMARK  129  A    between atoms: _310  and  _313
REMARK  130  A    between atoms: _313  and  _314
REMARK  131  A    between atoms: _317  and  _319
REMARK  132  A    between atoms: _319  and  _320
REMARK  133  A    between atoms: _319  and  _322
REMARK  134  A    between atoms: _322  and  _323
REMARK  135  A    between atoms: _326  and  _328
REMARK  136  A    between atoms: _328  and  _329
REMARK  137  A    between atoms: _328  and  _331
REMARK  138  A    between atoms: _331  and  _332
REMARK  139  A    between atoms: _335  and  _337
REMARK  140  A    between atoms: _337  and  _338
REMARK  141  A    between atoms: _337  and  _340
REMARK  142  A    between atoms: _340  and  _341
REMARK  143  A    between atoms: _344  and  _346
REMARK  144  A    between atoms: _346  and  _347
REMARK  145  A    between atoms: _349  and  _351
REMARK  146  A    between atoms: _351  and  _352
REMARK  147  A    between atoms: _355  and  _357
REMARK  148  A    between atoms: _357  and  _358
REMARK  149  A    between atoms: _357  and  _360
REMARK  150  A    between atoms: _360  and  _361
REMARK  151  A    between atoms: _364  and  _366
REMARK  152  A    between atoms: _366  and  _367
REMARK  153  A    between atoms: _366  and  _369
REMARK  154  A    between atoms: _369  and  _370
REMARK  155  A    between atoms: _373  and  _375
REMARK  156  A    between atoms: _375  and  _376
REMARK  157  A    between atoms: _375  and  _378
REMARK  158  A    between atoms: _378  and  _379
REMARK  159  A    between atoms: _382  and  _384
REMARK  160  A    between atoms: _384  and  _385
REMARK  161  A    between atoms: _384  and  _387
REMARK  162  A    between atoms: _390  and  _392
REMARK  163  A    between atoms: _392  and  _393
REMARK  164  A    between atoms: _392  and  _395
REMARK  165  A    between atoms: _395  and  _396
REMARK  166  A    between atoms: _396  and  _397
REMARK  167  A    between atoms: _397  and  _398
REMARK  168  A    between atoms: _398  and  _399
REMARK  169  A    between atoms: _403  and  _405
REMARK  170  A    between atoms: _405  and  _406
REMARK  171  A    between atoms: _405  and  _408
REMARK  172  A    between atoms: _408  and  _409
REMARK  173  A    between atoms: _409  and  _410
REMARK  174  A    between atoms: _412  and  _414
REMARK  175  A    between atoms: _414  and  _415
REMARK  176  A    between atoms: _414  and  _417
REMARK  177  A    between atoms: _417  and  _418
REMARK  178  A    between atoms: _421  and  _423
REMARK  179  A    between atoms: _423  and  _424
REMARK  180  A    between atoms: _426  and  _428
REMARK  181  A    between atoms: _428  and  _429
REMARK  182  A    between atoms: _431  and  _433
REMARK  183  A    between atoms: _433  and  _434
REMARK  184  A    between atoms: _433  and  _436
REMARK  185  A    between atoms: _436  and  _437
REMARK  186  A    between atoms: _440  and  _442
REMARK  187  A    between atoms: _442  and  _443
REMARK  188  A    between atoms: _445  and  _447
REMARK  189  A    between atoms: _447  and  _448
REMARK  190  A    between atoms: _450  and  _452
REMARK  191  A    between atoms: _452  and  _453
REMARK  192  A    between atoms: _452  and  _455
REMARK  193  A    between atoms: _455  and  _456
REMARK  194  A    between atoms: _462  and  _464
REMARK  195  A    between atoms: _464  and  _465
REMARK  196  A    between atoms: _464  and  _467
REMARK  197  A    between atoms: _467  and  _468
REMARK  198  A    between atoms: _471  and  _473
REMARK  199  A    between atoms: _473  and  _474
REMARK  200  A    between atoms: _473  and  _476
REMARK  201  A    between atoms: _479  and  _481
REMARK  202  A    between atoms: _481  and  _482
REMARK  203  A    between atoms: _481  and  _484
REMARK  204  A    between atoms: _484  and  _485
REMARK  205  A    between atoms: _489  and  _490
REMARK  206  A    between atoms: _495  and  _497
REMARK  207  A    between atoms: _497  and  _498
REMARK  208  A    between atoms: _497  and  _500
REMARK  209  A    between atoms: _500  and  _501
REMARK  210  A    between atoms: _505  and  _506
REMARK  211  A    between atoms: _511  and  _513
REMARK  212  A    between atoms: _513  and  _514
REMARK  213  A    between atoms: _513  and  _516
REMARK  214  A    between atoms: _519  and  _521
REMARK  215  A    between atoms: _521  and  _522
REMARK  216  A    between atoms: _521  and  _524
REMARK  217  A    between atoms: _524  and  _525
REMARK  218  A    between atoms: _530  and  _532
REMARK  219  A    between atoms: _532  and  _533
REMARK  220  A    between atoms: _532  and  _535
REMARK  221  A    between atoms: _535  and  _536
REMARK  222  A    between atoms: _539  and  _541
REMARK  223  A    between atoms: _541  and  _542
REMARK  224  A    between atoms: _541  and  _544
REMARK  225  A    between atoms: _544  and  _545
REMARK  226  A    between atoms: _548  and  _550
REMARK  227  A    between atoms: _550  and  _551
REMARK  228  A    between atoms: _553  and  _555
REMARK  229  A    between atoms: _555  and  _556
REMARK  230  A    between atoms: _555  and  _558
REMARK  231  A    between atoms: _558  and  _559
REMARK  232  A    between atoms: _559  and  _560
REMARK  233  A    between atoms: _560  and  _561
REMARK                            x       y       z     vdW  Elec       q    Type
REMARK                         _______ _______ _______ _____ _____    ______ ____
ROOT
ATOM      1  C   ASN A   5      11.828  22.493  -4.599  0.00  0.00    +0.241 C 
ATOM      2  N   ILE A   6      12.806  21.796  -4.037  0.00  0.00    -0.297 N 
ATOM      3  H   ILE A   6      12.810  20.762  -4.148  0.00  0.00    +0.150 HD
ATOM      4  O   ASN A   5      11.747  23.721  -4.547  0.00  0.00    -0.273 OA
ENDROOT
BRANCH   1   5
ATOM      5  CA  ASN A   5      10.776  21.671  -5.321  0.00  0.00    +0.158 C 
BRANCH   5   8
ATOM      6  C   VAL A   4       9.131  21.740  -3.575  0.00  0.00    +0.241 C 
ATOM      7  O   VAL A   4       9.824  21.009  -2.864  0.00  0.00    -0.273 OA
ATOM      8  N   ASN A   5       9.498  22.102  -4.797  0.00  0.00    -0.297 N 
ATOM      9  H   ASN A   5       8.869  22.694  -5.377  0.00  0.00    +0.150 HD
BRANCH   6  10
ATOM     10  CA  VAL A   4       7.787  22.268  -3.089  0.00  0.00    +0.149 C 
BRANCH  10  12
ATOM     11  C   PRO A   3       5.936  21.228  -1.899  0.00  0.00    +0.241 C 
ATOM     12  N   VAL A   4       7.243  21.424  -2.038  0.00  0.00    -0.297 N 
ATOM     13  H   VAL A   4       7.896  20.960  -1.375  0.00  0.00    +0.150 HD
ATOM     14  O   PRO A   3       5.093  21.736  -2.643  0.00  0.00    -0.273 OA
BRANCH  11  20
ATOM     15  C   THR A   2       6.873  18.341  -1.283  0.00  0.00    +0.246 C 
ATOM     16  N   PRO A   3       6.521  19.310  -0.428  0.00  0.00    -0.272 N 
ATOM     17  CD  PRO A   3       6.899  19.372   0.994  0.00  0.00    +0.094 C 
ATOM     18  CG  PRO A   3       5.710  20.075   1.596  0.00  0.00    +0.024 C 
ATOM     19  CB  PRO A   3       5.416  21.113   0.567  0.00  0.00    +0.031 C 
ATOM     20  CA  PRO A   3       5.520  20.334  -0.738  0.00  0.00    +0.152 C 
ATOM     21  O   THR A   2       6.360  18.237  -2.397  0.00  0.00    -0.273 OA
BRANCH  15  22
ATOM     22  CA  THR A   2       7.930  17.352  -0.808  0.00  0.00    +0.176 C 
BRANCH  22  25
ATOM     23  C   PRO A   1       7.094  15.133  -0.358  0.00  0.00    +0.239 C 
ATOM     24  O   PRO A   1       6.901  15.408   0.825  0.00  0.00    -0.274 OA
ATOM     25  N   THR A   2       7.591  16.004  -1.224  0.00  0.00    -0.295 N 
ATOM     26  H   THR A   2       7.740  15.718  -2.213  0.00  0.00    +0.150 HD
BRANCH  23  31
ATOM     27  N   PRO A   1       7.925  12.990  -1.356  0.00  0.00    -0.210 NA
ATOM     28  CD  PRO A   1       8.183  11.851  -0.458  0.00  0.00    +0.089 C 
ATOM     29  CG  PRO A   1       7.391  12.228   0.775  0.00  0.00    +0.021 C 
ATOM     30  CB  PRO A   1       6.164  12.841   0.171  0.00  0.00    +0.028 C 
ATOM     31  CA  PRO A   1       6.758  13.749  -0.901  0.00  0.00    +0.149 C 
ENDBRANCH  23  31
ENDBRANCH  22  25
BRANCH  22  32
ATOM     32  CB  THR A   2       9.317  17.782  -1.347  0.00  0.00    +0.137 C 
ATOM     33  CG2 THR A   2       9.387  17.616  -2.860  0.00  0.00    +0.034 C 
BRANCH  32  34
ATOM     34  OG1 THR A   2       9.554  19.149  -0.999  0.00  0.00    -0.382 OA
ATOM     35  HG1 THR A   2       8.850  19.717  -1.401  0.00  0.00    +0.210 HD
ENDBRANCH  32  34
ENDBRANCH  22  32
ENDBRANCH  15  22
ENDBRANCH  11  20
ENDBRANCH  10  12
BRANCH  10  36
ATOM     36  CB  VAL A   4       7.998  23.713  -2.595  0.00  0.00    +0.027 C 
ATOM     37  CG2 VAL A   4       9.011  23.731  -1.451  0.00  0.00    +0.002 C 
ATOM     38  CG1 VAL A   4       6.686  24.312  -2.146  0.00  0.00    +0.002 C 
ENDBRANCH  10  36
ENDBRANCH   6  10
ENDBRANCH   5   8
BRANCH   5  39
ATOM     39  CB  ASN A   5      10.848  21.896  -6.826  0.00  0.00    +0.114 C 
BRANCH  39  40
ATOM     40  CG  ASN A   5       9.853  21.047  -7.576  0.00  0.00    +0.222 C 
ATOM     41  OD1 ASN A   5       9.722  19.858  -7.310  0.00  0.00    -0.275 OA
ATOM     42  ND2 ASN A   5       9.148  21.652  -8.522  0.00  0.00    -0.329 N 
ATOM     43 HD21 ASN A   5       9.294  22.664  -8.712  0.00  0.00    +0.145 HD
ATOM     44 HD22 ASN A   5       8.449  21.115  -9.074  0.00  0.00    +0.145 HD
ENDBRANCH  39  40
ENDBRANCH   5  39
ENDBRANCH   1   5
BRANCH   2  45
ATOM     45  CA  ILE A   6      13.872  22.420  -3.272  0.00  0.00    +0.149 C 
BRANCH  45  46
ATOM     46  C   ILE A   6      15.228  22.270  -3.938  0.00  0.00    +0.241 C 
ATOM     47  N   ILE A   7      15.888  23.398  -4.191  0.00  0.00    -0.297 N 
ATOM     48  H   ILE A   7      15.436  24.308  -3.970  0.00  0.00    +0.150 HD
ATOM     49  O   ILE A   6      15.660  21.158  -4.224  0.00  0.00    -0.273 OA
BRANCH  47  50
ATOM     50  CA  ILE A   7      17.222  23.394  -4.767  0.00  0.00    +0.149 C 
BRANCH  50  51
ATOM     51  C   ILE A   7      18.122  23.606  -3.557  0.00  0.00    +0.241 C 
ATOM     52  O   ILE A   7      18.140  24.690  -2.974  0.00  0.00    -0.273 OA
ATOM     53  N   GLY A   8      18.851  22.562  -3.171  0.00  0.00    -0.295 N 
ATOM     54  H   GLY A   8      18.805  21.676  -3.713  0.00  0.00    +0.150 HD
BRANCH  53  55
ATOM     55  CA  GLY A   8      19.710  22.643  -2.002  0.00  0.00    +0.176 C 
BRANCH  55  56
ATOM     56  C   GLY A   8      21.151  23.032  -2.260  0.00  0.00    +0.243 C 
ATOM     57  N   ARG A   9      21.939  23.056  -1.189  0.00  0.00    -0.298 N 
ATOM     58  H   ARG A   9      21.542  22.797  -0.263  0.00  0.00    +0.150 HD
ATOM     59  O   GLY A   8      21.551  23.284  -3.393  0.00  0.00    -0.273 OA
BRANCH  57  60
ATOM     60  CA  ARG A   9      23.346  23.436  -1.276  0.00  0.00    +0.137 C 
BRANCH  60  61
ATOM     61  C   ARG A   9      24.175  22.596  -2.244  0.00  0.00    +0.227 C 
ATOM     62  O   ARG A   9      25.113  23.101  -2.851  0.00  0.00    -0.286 OA
ENDBRANCH  60  61
BRANCH  60  63
ATOM     63  CB  ARG A   9      23.982  23.421   0.121  0.00  0.00    +0.031 C 
BRANCH  63  64
ATOM     64  CG  ARG A   9      23.374  24.472   1.049  0.00  0.00    +0.045 C 
BRANCH  64  65
ATOM     65  CD  ARG A   9      24.126  24.621   2.357  0.00  0.00    +0.174 C 
BRANCH  65  66
ATOM     66  NE  ARG A   9      24.138  23.388   3.134  0.00  0.00    -0.265 N 
ATOM     67  HE  ARG A   9      23.308  23.174   3.722  0.00  0.00    +0.259 HD
ATOM     68  CZ  ARG A   9      25.144  22.521   3.137  0.00  0.00    +0.342 C 
ATOM     69  NH2 ARG A   9      25.058  21.414   3.862  0.00  0.00    -0.292 N 
ATOM     70 HH21 ARG A   9      24.205  21.227   4.426  0.00  0.00    +0.255 HD
ATOM     71 HH22 ARG A   9      25.844  20.733   3.867  0.00  0.00    +0.255 HD
ATOM     72  NH1 ARG A   9      26.226  22.758   2.406  0.00  0.00    -0.292 N 
ATOM     73 HH11 ARG A   9      27.014  22.079   2.408  0.00  0.00    +0.255 HD
ATOM     74 HH12 ARG A   9      26.286  23.623   1.831  0.00  0.00    +0.255 HD
ENDBRANCH  65  66
ENDBRANCH  64  65
ENDBRANCH  63  64
ENDBRANCH  60  63
ENDBRANCH  57  60
ENDBRANCH  55  56
ENDBRANCH  53  55
ENDBRANCH  50  51
BRANCH  50  75
ATOM     75  CB  ILE A   7      17.422  24.550  -5.770  0.00  0.00    +0.027 C 
ATOM     76  CG2 ILE A   7      18.846  24.527  -6.301  0.00  0.00    +0.002 C 
BRANCH  75  77
ATOM     77  CG1 ILE A   7      16.435  24.415  -6.934  0.00  0.00    +0.002 C 
ATOM     78  CD1 ILE A   7      16.584  23.110  -7.716  0.00  0.00    +0.000 C 
ENDBRANCH  75  77
ENDBRANCH  50  75
ENDBRANCH  47  50
ENDBRANCH  45  46
BRANCH  45  79
ATOM     79  CB  ILE A   6      13.963  21.786  -1.862  0.00  0.00    +0.027 C 
ATOM     80  CG2 ILE A   6      15.165  22.352  -1.105  0.00  0.00    +0.002 C 
BRANCH  79  81
ATOM     81  CG1 ILE A   6      12.658  22.036  -1.099  0.00  0.00    +0.002 C 
ATOM     82  CD1 ILE A   6      12.568  21.305   0.227  0.00  0.00    +0.000 C 
ENDBRANCH  79  81
ENDBRANCH  45  79
ENDBRANCH   2  45
TORSDOF 29
REMARK  Name = ../refined-set-2016/1ec1/1ec1_pocket.pdb
REMARK  233 active torsions:
REMARK  status: ('A' for Active; 'I' for Inactive)
REMARK    1  A    between atoms: _1  and  _3
REMARK    2  A    between atoms: _3  and  _4
REMARK    3  A    between atoms: _3  and  _6
REMARK    4  A    between atoms: _6  and  _7
REMARK    5  A    between atoms: _7  and  _8
REMARK    6  A    between atoms: _8  and  _9
REMARK    7  A    between atoms: _18  and  _20
REMARK    8  A    between atoms: _20  and  _21
REMARK    9  A    between atoms: _20  and  _23
REMARK   10  A    between atoms: _23  and  _24
REMARK   11  A    between atoms: _27  and  _29
REMARK   12  A    between atoms: _29  and  _30
REMARK   13  A    between atoms: _29  and  _32
REMARK   14  A    between atoms: _32  and  _33
REMARK   15  A    between atoms: _36  and  _38
REMARK   16  A    between atoms: _38  and  _39
REMARK   17  A    between atoms: _38  and  _41
REMARK   18  A    between atoms: _41  and  _42
REMARK   19  A    between atoms: _45  and  _47
REMARK   20  A    between atoms: _47  and  _48
REMARK   21  A    between atoms: _47  and  _50
REMARK   22  A    between atoms: _50  and  _51
REMARK   23  A    between atoms: _54  and  _56
REMARK   24  A    between atoms: _56  and  _57
REMARK   25  A    between atoms: _56  and  _59
REMARK   26  A    between atoms: _59  and  _60
REMARK   27  A    between atoms: _63  and  _65
REMARK   28  A    between atoms: _65  and  _66
REMARK   29  A    between atoms: _68  and  _70
REMARK   30  A    between atoms: _70  and  _71
REMARK   31  A    between atoms: _74  and  _76
REMARK   32  A    between atoms: _76  and  _77
REMARK   33  A    between atoms: _76  and  _79
REMARK   34  A    between atoms: _79  and  _80
REMARK   35  A    between atoms: _83  and  _85
REMARK   36  A    between atoms: _85  and  _86
REMARK   37  A    between atoms: _85  and  _88
REMARK   38  A    between atoms: _88  and  _89
REMARK   39  A    between atoms: _92  and  _94
REMARK   40  A    between atoms: _94  and  _95
REMARK   41  A    between atoms: _94  and  _97
REMARK   42  A    between atoms: _97  and  _98
REMARK   43  A    between atoms: _101  and  _103
REMARK   44  A    between atoms: _103  and  _104
REMARK   45  A    between atoms: _103  and  _106
REMARK   46  A    between atoms: _109  and  _111
REMARK   47  A    between atoms: _111  and  _112
REMARK   48  A    between atoms: _111  and  _114
REMARK   49  A    between atoms: _114  and  _115
REMARK   50  A    between atoms: _115  and  _116
REMARK   51  A    between atoms: _116  and  _117
REMARK   52  A    between atoms: _117  and  _118
REMARK   53  A    between atoms: _122  and  _124
REMARK   54  A    between atoms: _124  and  _125
REMARK   55  A    between atoms: _124  and  _127
REMARK   56  A    between atoms: _127  and  _128
REMARK   57  A    between atoms: _128  and  _129
REMARK   58  A    between atoms: _131  and  _133
REMARK   59  A    between atoms: _133  and  _134
REMARK   60  A    between atoms: _133  and  _136
REMARK   61  A    between atoms: _136  and  _137
REMARK   62  A    between atoms: _140  and  _142
REMARK   63  A    between atoms: _142  and  _143
REMARK   64  A    between atoms: _145  and  _147
REMARK   65  A    between atoms: _147  and  _148
REMARK   66  A    between atoms: _150  and  _152
REMARK   67  A    between atoms: _152  and  _153
REMARK   68  A    between atoms: _152  and  _155
REMARK   69  A    between atoms: _155  and  _156
REMARK   70  A    between atoms: _159  and  _161
REMARK   71  A    between atoms: _161  and  _162
REMARK   72  A    between atoms: _164  and  _166
REMARK   73  A    between atoms: _166  and  _167
REMARK   74  A    between atoms: _169  and  _171
REMARK   75  A    between atoms: _171  and  _172
REMARK   76  A    between atoms: _171  and  _174
REMARK   77  A    between atoms: _174  and  _175
REMARK   78  A    between atoms: _181  and  _183
REMARK   79  A    between atoms: _183  and  _184
REMARK   80  A    between atoms: _183  and  _186
REMARK   81  A    between atoms: _186  and  _187
REMARK   82  A    between atoms: _190  and  _192
REMARK   83  A    between atoms: _192  and  _193
REMARK   84  A    between atoms: _192  and  _195
REMARK   85  A    between atoms: _198  and  _200
REMARK   86  A    between atoms: _200  and  _201
REMARK   87  A    between atoms: _200  and  _203
REMARK   88  A    between atoms: _203  and  _204
REMARK   89  A    between atoms: _207  and  _209
REMARK   90  A    between atoms: _209  and  _210
REMARK   91  A    between atoms: _209  and  _212
REMARK   92  A    between atoms: _212  and  _213
REMARK   93  A    between atoms: _217  and  _218
REMARK   94  A    between atoms: _223  and  _225
REMARK   95  A    between atoms: _225  and  _226
REMARK   96  A    between atoms: _225  and  _228
REMARK   97  A    between atoms: _231  and  _233
REMARK   98  A    between atoms: _233  and  _234
REMARK   99  A    between atoms: _233  and  _236
REMARK  100  A    between atoms: _236  and  _237
REMARK  101  A    between atoms: _242  and  _244
REMARK  102  A    between atoms: _244  and  _245
REMARK  103  A    between atoms: _244  and  _247
REMARK  104  A    between atoms: _247  and  _248
REMARK  105  A    between atoms: _251  and  _253
REMARK  106  A    between atoms: _253  and  _254
REMARK  107  A    between atoms: _253  and  _256
REMARK  108  A    between atoms: _256  and  _257
REMARK  109  A    between atoms: _260  and  _262
REMARK  110  A    between atoms: _262  and  _263
REMARK  111  A    between atoms: _265  and  _267
REMARK  112  A    between atoms: _267  and  _268
REMARK  113  A    between atoms: _267  and  _270
REMARK  114  A    between atoms: _270  and  _271
REMARK  115  A    between atoms: _271  and  _272
REMARK  116  A    between atoms: _272  and  _273
REMARK  117  A    between atoms: _282  and  _284
REMARK  118  A    between atoms: _284  and  _285
REMARK  119  A    between atoms: _284  and  _287
REMARK  120  A    between atoms: _287  and  _288
REMARK  121  A    between atoms: _288  and  _289
REMARK  122  A    between atoms: _289  and  _290
REMARK  123  A    between atoms: _299  and  _301
REMARK  124  A    between atoms: _301  and  _302
REMARK  125  A    between atoms: _301  and  _304
REMARK  126  A    between atoms: _304  and  _305
REMARK  127  A    between atoms: _308  and  _310
REMARK  128  A    between atoms: _310  and  _311
REMARK  129  A    between atoms: _310  and  _313
REMARK  130  A    between atoms: _313  and  _314
REMARK  131  A    between atoms: _317  and  _319
REMARK  132  A    between atoms: _319  and  _320
REMARK  133  A    between atoms: _319  and  _322
REMARK  134  A    between atoms: _322  and  _323
REMARK  135  A    between atoms: _326  and  _328
REMARK  136  A    between atoms: _328  and  _329
REMARK  137  A    between atoms: _328  and  _331
REMARK  138  A    between atoms: _331  and  _332
REMARK  139  A    between atoms: _335  and  _337
REMARK  140  A    between atoms: _337  and  _338
REMARK  141  A    between atoms: _337  and  _340
REMARK  142  A    between atoms: _340  and  _341
REMARK  143  A    between atoms: _344  and  _346
REMARK  144  A    between atoms: _346  and  _347
REMARK  145  A    between atoms: _349  and  _351
REMARK  146  A    between atoms: _351  and  _352
REMARK  147  A    between atoms: _355  and  _357
REMARK  148  A    between atoms: _357  and  _358
REMARK  149  A    between atoms: _357  and  _360
REMARK  150  A    between atoms: _360  and  _361
REMARK  151  A    between atoms: _364  and  _366
REMARK  152  A    between atoms: _366  and  _367
REMARK  153  A    between atoms: _366  and  _369
REMARK  154  A    between atoms: _369  and  _370
REMARK  155  A    between atoms: _373  and  _375
REMARK  156  A    between atoms: _375  and  _376
REMARK  157  A    between atoms: _375  and  _378
REMARK  158  A    between atoms: _378  and  _379
REMARK  159  A    between atoms: _382  and  _384
REMARK  160  A    between atoms: _384  and  _385
REMARK  161  A    between atoms: _384  and  _387
REMARK  162  A    between atoms: _390  and  _392
REMARK  163  A    between atoms: _392  and  _393
REMARK  164  A    between atoms: _392  and  _395
REMARK  165  A    between atoms: _395  and  _396
REMARK  166  A    between atoms: _396  and  _397
REMARK  167  A    between atoms: _397  and  _398
REMARK  168  A    between atoms: _398  and  _399
REMARK  169  A    between atoms: _403  and  _405
REMARK  170  A    between atoms: _405  and  _406
REMARK  171  A    between atoms: _405  and  _408
REMARK  172  A    between atoms: _408  and  _409
REMARK  173  A    between atoms: _409  and  _410
REMARK  174  A    between atoms: _412  and  _414
REMARK  175  A    between atoms: _414  and  _415
REMARK  176  A    between atoms: _414  and  _417
REMARK  177  A    between atoms: _417  and  _418
REMARK  178  A    between atoms: _421  and  _423
REMARK  179  A    between atoms: _423  and  _424
REMARK  180  A    between atoms: _426  and  _428
REMARK  181  A    between atoms: _428  and  _429
REMARK  182  A    between atoms: _431  and  _433
REMARK  183  A    between atoms: _433  and  _434
REMARK  184  A    between atoms: _433  and  _436
REMARK  185  A    between atoms: _436  and  _437
REMARK  186  A    between atoms: _440  and  _442
REMARK  187  A    between atoms: _442  and  _443
REMARK  188  A    between atoms: _445  and  _447
REMARK  189  A    between atoms: _447  and  _448
REMARK  190  A    between atoms: _450  and  _452
REMARK  191  A    between atoms: _452  and  _453
REMARK  192  A    between atoms: _452  and  _455
REMARK  193  A    between atoms: _455  and  _456
REMARK  194  A    between atoms: _462  and  _464
REMARK  195  A    between atoms: _464  and  _465
REMARK  196  A    between atoms: _464  and  _467
REMARK  197  A    between atoms: _467  and  _468
REMARK  198  A    between atoms: _471  and  _473
REMARK  199  A    between atoms: _473  and  _474
REMARK  200  A    between atoms: _473  and  _476
REMARK  201  A    between atoms: _479  and  _481
REMARK  202  A    between atoms: _481  and  _482
REMARK  203  A    between atoms: _481  and  _484
REMARK  204  A    between atoms: _484  and  _485
REMARK  205  A    between atoms: _489  and  _490
REMARK  206  A    between atoms: _495  and  _497
REMARK  207  A    between atoms: _497  and  _498
REMARK  208  A    between atoms: _497  and  _500
REMARK  209  A    between atoms: _500  and  _501
REMARK  210  A    between atoms: _505  and  _506
REMARK  211  A    between atoms: _511  and  _513
REMARK  212  A    between atoms: _513  and  _514
REMARK  213  A    between atoms: _513  and  _516
REMARK  214  A    between atoms: _519  and  _521
REMARK  215  A    between atoms: _521  and  _522
REMARK  216  A    between atoms: _521  and  _524
REMARK  217  A    between atoms: _524  and  _525
REMARK  218  A    between atoms: _530  and  _532
REMARK  219  A    between atoms: _532  and  _533
REMARK  220  A    between atoms: _532  and  _535
REMARK  221  A    between atoms: _535  and  _536
REMARK  222  A    between atoms: _539  and  _541
REMARK  223  A    between atoms: _541  and  _542
REMARK  224  A    between atoms: _541  and  _544
REMARK  225  A    between atoms: _544  and  _545
REMARK  226  A    between atoms: _548  and  _550
REMARK  227  A    between atoms: _550  and  _551
REMARK  228  A    between atoms: _553  and  _555
REMARK  229  A    between atoms: _555  and  _556
REMARK  230  A    between atoms: _555  and  _558
REMARK  231  A    between atoms: _558  and  _559
REMARK  232  A    between atoms: _559  and  _560
REMARK  233  A    between atoms: _560  and  _561
REMARK                            x       y       z     vdW  Elec       q    Type
REMARK                         _______ _______ _______ _____ _____    ______ ____
ROOT
ATOM      1  O   HOH     1       8.800  33.590  12.176  0.00  0.00    +0.000 OA
ENDROOT
TORSDOF 0
REMARK  Name = ../refined-set-2016/1ec1/1ec1_pocket.pdb
REMARK  233 active torsions:
REMARK  status: ('A' for Active; 'I' for Inactive)
REMARK    1  A    between atoms: _1  and  _3
REMARK    2  A    between atoms: _3  and  _4
REMARK    3  A    between atoms: _3  and  _6
REMARK    4  A    between atoms: _6  and  _7
REMARK    5  A    between atoms: _7  and  _8
REMARK    6  A    between atoms: _8  and  _9
REMARK    7  A    between atoms: _18  and  _20
REMARK    8  A    between atoms: _20  and  _21
REMARK    9  A    between atoms: _20  and  _23
REMARK   10  A    between atoms: _23  and  _24
REMARK   11  A    between atoms: _27  and  _29
REMARK   12  A    between atoms: _29  and  _30
REMARK   13  A    between atoms: _29  and  _32
REMARK   14  A    between atoms: _32  and  _33
REMARK   15  A    between atoms: _36  and  _38
REMARK   16  A    between atoms: _38  and  _39
REMARK   17  A    between atoms: _38  and  _41
REMARK   18  A    between atoms: _41  and  _42
REMARK   19  A    between atoms: _45  and  _47
REMARK   20  A    between atoms: _47  and  _48
REMARK   21  A    between atoms: _47  and  _50
REMARK   22  A    between atoms: _50  and  _51
REMARK   23  A    between atoms: _54  and  _56
REMARK   24  A    between atoms: _56  and  _57
REMARK   25  A    between atoms: _56  and  _59
REMARK   26  A    between atoms: _59  and  _60
REMARK   27  A    between atoms: _63  and  _65
REMARK   28  A    between atoms: _65  and  _66
REMARK   29  A    between atoms: _68  and  _70
REMARK   30  A    between atoms: _70  and  _71
REMARK   31  A    between atoms: _74  and  _76
REMARK   32  A    between atoms: _76  and  _77
REMARK   33  A    between atoms: _76  and  _79
REMARK   34  A    between atoms: _79  and  _80
REMARK   35  A    between atoms: _83  and  _85
REMARK   36  A    between atoms: _85  and  _86
REMARK   37  A    between atoms: _85  and  _88
REMARK   38  A    between atoms: _88  and  _89
REMARK   39  A    between atoms: _92  and  _94
REMARK   40  A    between atoms: _94  and  _95
REMARK   41  A    between atoms: _94  and  _97
REMARK   42  A    between atoms: _97  and  _98
REMARK   43  A    between atoms: _101  and  _103
REMARK   44  A    between atoms: _103  and  _104
REMARK   45  A    between atoms: _103  and  _106
REMARK   46  A    between atoms: _109  and  _111
REMARK   47  A    between atoms: _111  and  _112
REMARK   48  A    between atoms: _111  and  _114
REMARK   49  A    between atoms: _114  and  _115
REMARK   50  A    between atoms: _115  and  _116
REMARK   51  A    between atoms: _116  and  _117
REMARK   52  A    between atoms: _117  and  _118
REMARK   53  A    between atoms: _122  and  _124
REMARK   54  A    between atoms: _124  and  _125
REMARK   55  A    between atoms: _124  and  _127
REMARK   56  A    between atoms: _127  and  _128
REMARK   57  A    between atoms: _128  and  _129
REMARK   58  A    between atoms: _131  and  _133
REMARK   59  A    between atoms: _133  and  _134
REMARK   60  A    between atoms: _133  and  _136
REMARK   61  A    between atoms: _136  and  _137
REMARK   62  A    between atoms: _140  and  _142
REMARK   63  A    between atoms: _142  and  _143
REMARK   64  A    between atoms: _145  and  _147
REMARK   65  A    between atoms: _147  and  _148
REMARK   66  A    between atoms: _150  and  _152
REMARK   67  A    between atoms: _152  and  _153
REMARK   68  A    between atoms: _152  and  _155
REMARK   69  A    between atoms: _155  and  _156
REMARK   70  A    between atoms: _159  and  _161
REMARK   71  A    between atoms: _161  and  _162
REMARK   72  A    between atoms: _164  and  _166
REMARK   73  A    between atoms: _166  and  _167
REMARK   74  A    between atoms: _169  and  _171
REMARK   75  A    between atoms: _171  and  _172
REMARK   76  A    between atoms: _171  and  _174
REMARK   77  A    between atoms: _174  and  _175
REMARK   78  A    between atoms: _181  and  _183
REMARK   79  A    between atoms: _183  and  _184
REMARK   80  A    between atoms: _183  and  _186
REMARK   81  A    between atoms: _186  and  _187
REMARK   82  A    between atoms: _190  and  _192
REMARK   83  A    between atoms: _192  and  _193
REMARK   84  A    between atoms: _192  and  _195
REMARK   85  A    between atoms: _198  and  _200
REMARK   86  A    between atoms: _200  and  _201
REMARK   87  A    between atoms: _200  and  _203
REMARK   88  A    between atoms: _203  and  _204
REMARK   89  A    between atoms: _207  and  _209
REMARK   90  A    between atoms: _209  and  _210
REMARK   91  A    between atoms: _209  and  _212
REMARK   92  A    between atoms: _212  and  _213
REMARK   93  A    between atoms: _217  and  _218
REMARK   94  A    between atoms: _223  and  _225
REMARK   95  A    between atoms: _225  and  _226
REMARK   96  A    between atoms: _225  and  _228
REMARK   97  A    between atoms: _231  and  _233
REMARK   98  A    between atoms: _233  and  _234
REMARK   99  A    between atoms: _233  and  _236
REMARK  100  A    between atoms: _236  and  _237
REMARK  101  A    between atoms: _242  and  _244
REMARK  102  A    between atoms: _244  and  _245
REMARK  103  A    between atoms: _244  and  _247
REMARK  104  A    between atoms: _247  and  _248
REMARK  105  A    between atoms: _251  and  _253
REMARK  106  A    between atoms: _253  and  _254
REMARK  107  A    between atoms: _253  and  _256
REMARK  108  A    between atoms: _256  and  _257
REMARK  109  A    between atoms: _260  and  _262
REMARK  110  A    between atoms: _262  and  _263
REMARK  111  A    between atoms: _265  and  _267
REMARK  112  A    between atoms: _267  and  _268
REMARK  113  A    between atoms: _267  and  _270
REMARK  114  A    between atoms: _270  and  _271
REMARK  115  A    between atoms: _271  and  _272
REMARK  116  A    between atoms: _272  and  _273
REMARK  117  A    between atoms: _282  and  _284
REMARK  118  A    between atoms: _284  and  _285
REMARK  119  A    between atoms: _284  and  _287
REMARK  120  A    between atoms: _287  and  _288
REMARK  121  A    between atoms: _288  and  _289
REMARK  122  A    between atoms: _289  and  _290
REMARK  123  A    between atoms: _299  and  _301
REMARK  124  A    between atoms: _301  and  _302
REMARK  125  A    between atoms: _301  and  _304
REMARK  126  A    between atoms: _304  and  _305
REMARK  127  A    between atoms: _308  and  _310
REMARK  128  A    between atoms: _310  and  _311
REMARK  129  A    between atoms: _310  and  _313
REMARK  130  A    between atoms: _313  and  _314
REMARK  131  A    between atoms: _317  and  _319
REMARK  132  A    between atoms: _319  and  _320
REMARK  133  A    between atoms: _319  and  _322
REMARK  134  A    between atoms: _322  and  _323
REMARK  135  A    between atoms: _326  and  _328
REMARK  136  A    between atoms: _328  and  _329
REMARK  137  A    between atoms: _328  and  _331
REMARK  138  A    between atoms: _331  and  _332
REMARK  139  A    between atoms: _335  and  _337
REMARK  140  A    between atoms: _337  and  _338
REMARK  141  A    between atoms: _337  and  _340
REMARK  142  A    between atoms: _340  and  _341
REMARK  143  A    between atoms: _344  and  _346
REMARK  144  A    between atoms: _346  and  _347
REMARK  145  A    between atoms: _349  and  _351
REMARK  146  A    between atoms: _351  and  _352
REMARK  147  A    between atoms: _355  and  _357
REMARK  148  A    between atoms: _357  and  _358
REMARK  149  A    between atoms: _357  and  _360
REMARK  150  A    between atoms: _360  and  _361
REMARK  151  A    between atoms: _364  and  _366
REMARK  152  A    between atoms: _366  and  _367
REMARK  153  A    between atoms: _366  and  _369
REMARK  154  A    between atoms: _369  and  _370
REMARK  155  A    between atoms: _373  and  _375
REMARK  156  A    between atoms: _375  and  _376
REMARK  157  A    between atoms: _375  and  _378
REMARK  158  A    between atoms: _378  and  _379
REMARK  159  A    between atoms: _382  and  _384
REMARK  160  A    between atoms: _384  and  _385
REMARK  161  A    between atoms: _384  and  _387
REMARK  162  A    between atoms: _390  and  _392
REMARK  163  A    between atoms: _392  and  _393
REMARK  164  A    between atoms: _392  and  _395
REMARK  165  A    between atoms: _395  and  _396
REMARK  166  A    between atoms: _396  and  _397
REMARK  167  A    between atoms: _397  and  _398
REMARK  168  A    between atoms: _398  and  _399
REMARK  169  A    between atoms: _403  and  _405
REMARK  170  A    between atoms: _405  and  _406
REMARK  171  A    between atoms: _405  and  _408
REMARK  172  A    between atoms: _408  and  _409
REMARK  173  A    between atoms: _409  and  _410
REMARK  174  A    between atoms: _412  and  _414
REMARK  175  A    between atoms: _414  and  _415
REMARK  176  A    between atoms: _414  and  _417
REMARK  177  A    between atoms: _417  and  _418
REMARK  178  A    between atoms: _421  and  _423
REMARK  179  A    between atoms: _423  and  _424
REMARK  180  A    between atoms: _426  and  _428
REMARK  181  A    between atoms: _428  and  _429
REMARK  182  A    between atoms: _431  and  _433
REMARK  183  A    between atoms: _433  and  _434
REMARK  184  A    between atoms: _433  and  _436
REMARK  185  A    between atoms: _436  and  _437
REMARK  186  A    between atoms: _440  and  _442
REMARK  187  A    between atoms: _442  and  _443
REMARK  188  A    between atoms: _445  and  _447
REMARK  189  A    between atoms: _447  and  _448
REMARK  190  A    between atoms: _450  and  _452
REMARK  191  A    between atoms: _452  and  _453
REMARK  192  A    between atoms: _452  and  _455
REMARK  193  A    between atoms: _455  and  _456
REMARK  194  A    between atoms: _462  and  _464
REMARK  195  A    between atoms: _464  and  _465
REMARK  196  A    between atoms: _464  and  _467
REMARK  197  A    between atoms: _467  and  _468
REMARK  198  A    between atoms: _471  and  _473
REMARK  199  A    between atoms: _473  and  _474
REMARK  200  A    between atoms: _473  and  _476
REMARK  201  A    between atoms: _479  and  _481
REMARK  202  A    between atoms: _481  and  _482
REMARK  203  A    between atoms: _481  and  _484
REMARK  204  A    between atoms: _484  and  _485
REMARK  205  A    between atoms: _489  and  _490
REMARK  206  A    between atoms: _495  and  _497
REMARK  207  A    between atoms: _497  and  _498
REMARK  208  A    between atoms: _497  and  _500
REMARK  209  A    between atoms: _500  and  _501
REMARK  210  A    between atoms: _505  and  _506
REMARK  211  A    between atoms: _511  and  _513
REMARK  212  A    between atoms: _513  and  _514
REMARK  213  A    between atoms: _513  and  _516
REMARK  214  A    between atoms: _519  and  _521
REMARK  215  A    between atoms: _521  and  _522
REMARK  216  A    between atoms: _521  and  _524
REMARK  217  A    between atoms: _524  and  _525
REMARK  218  A    between atoms: _530  and  _532
REMARK  219  A    between atoms: _532  and  _533
REMARK  220  A    between atoms: _532  and  _535
REMARK  221  A    between atoms: _535  and  _536
REMARK  222  A    between atoms: _539  and  _541
REMARK  223  A    between atoms: _541  and  _542
REMARK  224  A    between atoms: _541  and  _544
REMARK  225  A    between atoms: _544  and  _545
REMARK  226  A    between atoms: _548  and  _550
REMARK  227  A    between atoms: _550  and  _551
REMARK  228  A    between atoms: _553  and  _555
REMARK  229  A    between atoms: _555  and  _556
REMARK  230  A    between atoms: _555  and  _558
REMARK  231  A    between atoms: _558  and  _559
REMARK  232  A    between atoms: _559  and  _560
REMARK  233  A    between atoms: _560  and  _561
REMARK                            x       y       z     vdW  Elec       q    Type
REMARK                         _______ _______ _______ _____ _____    ______ ____
ROOT
ATOM      1  O   HOH     1       9.397  28.995   1.917  0.00  0.00    +0.000 OA
ENDROOT
TORSDOF 0
REMARK  Name = ../refined-set-2016/1ec1/1ec1_pocket.pdb
REMARK  233 active torsions:
REMARK  status: ('A' for Active; 'I' for Inactive)
REMARK    1  A    between atoms: _1  and  _3
REMARK    2  A    between atoms: _3  and  _4
REMARK    3  A    between atoms: _3  and  _6
REMARK    4  A    between atoms: _6  and  _7
REMARK    5  A    between atoms: _7  and  _8
REMARK    6  A    between atoms: _8  and  _9
REMARK    7  A    between atoms: _18  and  _20
REMARK    8  A    between atoms: _20  and  _21
REMARK    9  A    between atoms: _20  and  _23
REMARK   10  A    between atoms: _23  and  _24
REMARK   11  A    between atoms: _27  and  _29
REMARK   12  A    between atoms: _29  and  _30
REMARK   13  A    between atoms: _29  and  _32
REMARK   14  A    between atoms: _32  and  _33
REMARK   15  A    between atoms: _36  and  _38
REMARK   16  A    between atoms: _38  and  _39
REMARK   17  A    between atoms: _38  and  _41
REMARK   18  A    between atoms: _41  and  _42
REMARK   19  A    between atoms: _45  and  _47
REMARK   20  A    between atoms: _47  and  _48
REMARK   21  A    between atoms: _47  and  _50
REMARK   22  A    between atoms: _50  and  _51
REMARK   23  A    between atoms: _54  and  _56
REMARK   24  A    between atoms: _56  and  _57
REMARK   25  A    between atoms: _56  and  _59
REMARK   26  A    between atoms: _59  and  _60
REMARK   27  A    between atoms: _63  and  _65
REMARK   28  A    between atoms: _65  and  _66
REMARK   29  A    between atoms: _68  and  _70
REMARK   30  A    between atoms: _70  and  _71
REMARK   31  A    between atoms: _74  and  _76
REMARK   32  A    between atoms: _76  and  _77
REMARK   33  A    between atoms: _76  and  _79
REMARK   34  A    between atoms: _79  and  _80
REMARK   35  A    between atoms: _83  and  _85
REMARK   36  A    between atoms: _85  and  _86
REMARK   37  A    between atoms: _85  and  _88
REMARK   38  A    between atoms: _88  and  _89
REMARK   39  A    between atoms: _92  and  _94
REMARK   40  A    between atoms: _94  and  _95
REMARK   41  A    between atoms: _94  and  _97
REMARK   42  A    between atoms: _97  and  _98
REMARK   43  A    between atoms: _101  and  _103
REMARK   44  A    between atoms: _103  and  _104
REMARK   45  A    between atoms: _103  and  _106
REMARK   46  A    between atoms: _109  and  _111
REMARK   47  A    between atoms: _111  and  _112
REMARK   48  A    between atoms: _111  and  _114
REMARK   49  A    between atoms: _114  and  _115
REMARK   50  A    between atoms: _115  and  _116
REMARK   51  A    between atoms: _116  and  _117
REMARK   52  A    between atoms: _117  and  _118
REMARK   53  A    between atoms: _122  and  _124
REMARK   54  A    between atoms: _124  and  _125
REMARK   55  A    between atoms: _124  and  _127
REMARK   56  A    between atoms: _127  and  _128
REMARK   57  A    between atoms: _128  and  _129
REMARK   58  A    between atoms: _131  and  _133
REMARK   59  A    between atoms: _133  and  _134
REMARK   60  A    between atoms: _133  and  _136
REMARK   61  A    between atoms: _136  and  _137
REMARK   62  A    between atoms: _140  and  _142
REMARK   63  A    between atoms: _142  and  _143
REMARK   64  A    between atoms: _145  and  _147
REMARK   65  A    between atoms: _147  and  _148
REMARK   66  A    between atoms: _150  and  _152
REMARK   67  A    between atoms: _152  and  _153
REMARK   68  A    between atoms: _152  and  _155
REMARK   69  A    between atoms: _155  and  _156
REMARK   70  A    between atoms: _159  and  _161
REMARK   71  A    between atoms: _161  and  _162
REMARK   72  A    between atoms: _164  and  _166
REMARK   73  A    between atoms: _166  and  _167
REMARK   74  A    between atoms: _169  and  _171
REMARK   75  A    between atoms: _171  and  _172
REMARK   76  A    between atoms: _171  and  _174
REMARK   77  A    between atoms: _174  and  _175
REMARK   78  A    between atoms: _181  and  _183
REMARK   79  A    between atoms: _183  and  _184
REMARK   80  A    between atoms: _183  and  _186
REMARK   81  A    between atoms: _186  and  _187
REMARK   82  A    between atoms: _190  and  _192
REMARK   83  A    between atoms: _192  and  _193
REMARK   84  A    between atoms: _192  and  _195
REMARK   85  A    between atoms: _198  and  _200
REMARK   86  A    between atoms: _200  and  _201
REMARK   87  A    between atoms: _200  and  _203
REMARK   88  A    between atoms: _203  and  _204
REMARK   89  A    between atoms: _207  and  _209
REMARK   90  A    between atoms: _209  and  _210
REMARK   91  A    between atoms: _209  and  _212
REMARK   92  A    between atoms: _212  and  _213
REMARK   93  A    between atoms: _217  and  _218
REMARK   94  A    between atoms: _223  and  _225
REMARK   95  A    between atoms: _225  and  _226
REMARK   96  A    between atoms: _225  and  _228
REMARK   97  A    between atoms: _231  and  _233
REMARK   98  A    between atoms: _233  and  _234
REMARK   99  A    between atoms: _233  and  _236
REMARK  100  A    between atoms: _236  and  _237
REMARK  101  A    between atoms: _242  and  _244
REMARK  102  A    between atoms: _244  and  _245
REMARK  103  A    between atoms: _244  and  _247
REMARK  104  A    between atoms: _247  and  _248
REMARK  105  A    between atoms: _251  and  _253
REMARK  106  A    between atoms: _253  and  _254
REMARK  107  A    between atoms: _253  and  _256
REMARK  108  A    between atoms: _256  and  _257
REMARK  109  A    between atoms: _260  and  _262
REMARK  110  A    between atoms: _262  and  _263
REMARK  111  A    between atoms: _265  and  _267
REMARK  112  A    between atoms: _267  and  _268
REMARK  113  A    between atoms: _267  and  _270
REMARK  114  A    between atoms: _270  and  _271
REMARK  115  A    between atoms: _271  and  _272
REMARK  116  A    between atoms: _272  and  _273
REMARK  117  A    between atoms: _282  and  _284
REMARK  118  A    between atoms: _284  and  _285
REMARK  119  A    between atoms: _284  and  _287
REMARK  120  A    between atoms: _287  and  _288
REMARK  121  A    between atoms: _288  and  _289
REMARK  122  A    between atoms: _289  and  _290
REMARK  123  A    between atoms: _299  and  _301
REMARK  124  A    between atoms: _301  and  _302
REMARK  125  A    between atoms: _301  and  _304
REMARK  126  A    between atoms: _304  and  _305
REMARK  127  A    between atoms: _308  and  _310
REMARK  128  A    between atoms: _310  and  _311
REMARK  129  A    between atoms: _310  and  _313
REMARK  130  A    between atoms: _313  and  _314
REMARK  131  A    between atoms: _317  and  _319
REMARK  132  A    between atoms: _319  and  _320
REMARK  133  A    between atoms: _319  and  _322
REMARK  134  A    between atoms: _322  and  _323
REMARK  135  A    between atoms: _326  and  _328
REMARK  136  A    between atoms: _328  and  _329
REMARK  137  A    between atoms: _328  and  _331
REMARK  138  A    between atoms: _331  and  _332
REMARK  139  A    between atoms: _335  and  _337
REMARK  140  A    between atoms: _337  and  _338
REMARK  141  A    between atoms: _337  and  _340
REMARK  142  A    between atoms: _340  and  _341
REMARK  143  A    between atoms: _344  and  _346
REMARK  144  A    between atoms: _346  and  _347
REMARK  145  A    between atoms: _349  and  _351
REMARK  146  A    between atoms: _351  and  _352
REMARK  147  A    between atoms: _355  and  _357
REMARK  148  A    between atoms: _357  and  _358
REMARK  149  A    between atoms: _357  and  _360
REMARK  150  A    between atoms: _360  and  _361
REMARK  151  A    between atoms: _364  and  _366
REMARK  152  A    between atoms: _366  and  _367
REMARK  153  A    between atoms: _366  and  _369
REMARK  154  A    between atoms: _369  and  _370
REMARK  155  A    between atoms: _373  and  _375
REMARK  156  A    between atoms: _375  and  _376
REMARK  157  A    between atoms: _375  and  _378
REMARK  158  A    between atoms: _378  and  _379
REMARK  159  A    between atoms: _382  and  _384
REMARK  160  A    between atoms: _384  and  _385
REMARK  161  A    between atoms: _384  and  _387
REMARK  162  A    between atoms: _390  and  _392
REMARK  163  A    between atoms: _392  and  _393
REMARK  164  A    between atoms: _392  and  _395
REMARK  165  A    between atoms: _395  and  _396
REMARK  166  A    between atoms: _396  and  _397
REMARK  167  A    between atoms: _397  and  _398
REMARK  168  A    between atoms: _398  and  _399
REMARK  169  A    between atoms: _403  and  _405
REMARK  170  A    between atoms: _405  and  _406
REMARK  171  A    between atoms: _405  and  _408
REMARK  172  A    between atoms: _408  and  _409
REMARK  173  A    between atoms: _409  and  _410
REMARK  174  A    between atoms: _412  and  _414
REMARK  175  A    between atoms: _414  and  _415
REMARK  176  A    between atoms: _414  and  _417
REMARK  177  A    between atoms: _417  and  _418
REMARK  178  A    between atoms: _421  and  _423
REMARK  179  A    between atoms: _423  and  _424
REMARK  180  A    between atoms: _426  and  _428
REMARK  181  A    between atoms: _428  and  _429
REMARK  182  A    between atoms: _431  and  _433
REMARK  183  A    between atoms: _433  and  _434
REMARK  184  A    between atoms: _433  and  _436
REMARK  185  A    between atoms: _436  and  _437
REMARK  186  A    between atoms: _440  and  _442
REMARK  187  A    between atoms: _442  and  _443
REMARK  188  A    between atoms: _445  and  _447
REMARK  189  A    between atoms: _447  and  _448
REMARK  190  A    between atoms: _450  and  _452
REMARK  191  A    between atoms: _452  and  _453
REMARK  192  A    between atoms: _452  and  _455
REMARK  193  A    between atoms: _455  and  _456
REMARK  194  A    between atoms: _462  and  _464
REMARK  195  A    between atoms: _464  and  _465
REMARK  196  A    between atoms: _464  and  _467
REMARK  197  A    between atoms: _467  and  _468
REMARK  198  A    between atoms: _471  and  _473
REMARK  199  A    between atoms: _473  and  _474
REMARK  200  A    between atoms: _473  and  _476
REMARK  201  A    between atoms: _479  and  _481
REMARK  202  A    between atoms: _481  and  _482
REMARK  203  A    between atoms: _481  and  _484
REMARK  204  A    between atoms: _484  and  _485
REMARK  205  A    between atoms: _489  and  _490
REMARK  206  A    between atoms: _495  and  _497
REMARK  207  A    between atoms: _497  and  _498
REMARK  208  A    between atoms: _497  and  _500
REMARK  209  A    between atoms: _500  and  _501
REMARK  210  A    between atoms: _505  and  _506
REMARK  211  A    between atoms: _511  and  _513
REMARK  212  A    between atoms: _513  and  _514
REMARK  213  A    between atoms: _513  and  _516
REMARK  214  A    between atoms: _519  and  _521
REMARK  215  A    between atoms: _521  and  _522
REMARK  216  A    between atoms: _521  and  _524
REMARK  217  A    between atoms: _524  and  _525
REMARK  218  A    between atoms: _530  and  _532
REMARK  219  A    between atoms: _532  and  _533
REMARK  220  A    between atoms: _532  and  _535
REMARK  221  A    between atoms: _535  and  _536
REMARK  222  A    between atoms: _539  and  _541
REMARK  223  A    between atoms: _541  and  _542
REMARK  224  A    between atoms: _541  and  _544
REMARK  225  A    between atoms: _544  and  _545
REMARK  226  A    between atoms: _548  and  _550
REMARK  227  A    between atoms: _550  and  _551
REMARK  228  A    between atoms: _553  and  _555
REMARK  229  A    between atoms: _555  and  _556
REMARK  230  A    between atoms: _555  and  _558
REMARK  231  A    between atoms: _558  and  _559
REMARK  232  A    between atoms: _559  and  _560
REMARK  233  A    between atoms: _560  and  _561
REMARK                            x       y       z     vdW  Elec       q    Type
REMARK                         _______ _______ _______ _____ _____    ______ ____
ROOT
ATOM      1  O   HOH     1       7.358  16.100   3.631  0.00  0.00    +0.000 OA
ENDROOT
TORSDOF 0
REMARK  Name = ../refined-set-2016/1ec1/1ec1_pocket.pdb
REMARK  233 active torsions:
REMARK  status: ('A' for Active; 'I' for Inactive)
REMARK    1  A    between atoms: _1  and  _3
REMARK    2  A    between atoms: _3  and  _4
REMARK    3  A    between atoms: _3  and  _6
REMARK    4  A    between atoms: _6  and  _7
REMARK    5  A    between atoms: _7  and  _8
REMARK    6  A    between atoms: _8  and  _9
REMARK    7  A    between atoms: _18  and  _20
REMARK    8  A    between atoms: _20  and  _21
REMARK    9  A    between atoms: _20  and  _23
REMARK   10  A    between atoms: _23  and  _24
REMARK   11  A    between atoms: _27  and  _29
REMARK   12  A    between atoms: _29  and  _30
REMARK   13  A    between atoms: _29  and  _32
REMARK   14  A    between atoms: _32  and  _33
REMARK   15  A    between atoms: _36  and  _38
REMARK   16  A    between atoms: _38  and  _39
REMARK   17  A    between atoms: _38  and  _41
REMARK   18  A    between atoms: _41  and  _42
REMARK   19  A    between atoms: _45  and  _47
REMARK   20  A    between atoms: _47  and  _48
REMARK   21  A    between atoms: _47  and  _50
REMARK   22  A    between atoms: _50  and  _51
REMARK   23  A    between atoms: _54  and  _56
REMARK   24  A    between atoms: _56  and  _57
REMARK   25  A    between atoms: _56  and  _59
REMARK   26  A    between atoms: _59  and  _60
REMARK   27  A    between atoms: _63  and  _65
REMARK   28  A    between atoms: _65  and  _66
REMARK   29  A    between atoms: _68  and  _70
REMARK   30  A    between atoms: _70  and  _71
REMARK   31  A    between atoms: _74  and  _76
REMARK   32  A    between atoms: _76  and  _77
REMARK   33  A    between atoms: _76  and  _79
REMARK   34  A    between atoms: _79  and  _80
REMARK   35  A    between atoms: _83  and  _85
REMARK   36  A    between atoms: _85  and  _86
REMARK   37  A    between atoms: _85  and  _88
REMARK   38  A    between atoms: _88  and  _89
REMARK   39  A    between atoms: _92  and  _94
REMARK   40  A    between atoms: _94  and  _95
REMARK   41  A    between atoms: _94  and  _97
REMARK   42  A    between atoms: _97  and  _98
REMARK   43  A    between atoms: _101  and  _103
REMARK   44  A    between atoms: _103  and  _104
REMARK   45  A    between atoms: _103  and  _106
REMARK   46  A    between atoms: _109  and  _111
REMARK   47  A    between atoms: _111  and  _112
REMARK   48  A    between atoms: _111  and  _114
REMARK   49  A    between atoms: _114  and  _115
REMARK   50  A    between atoms: _115  and  _116
REMARK   51  A    between atoms: _116  and  _117
REMARK   52  A    between atoms: _117  and  _118
REMARK   53  A    between atoms: _122  and  _124
REMARK   54  A    between atoms: _124  and  _125
REMARK   55  A    between atoms: _124  and  _127
REMARK   56  A    between atoms: _127  and  _128
REMARK   57  A    between atoms: _128  and  _129
REMARK   58  A    between atoms: _131  and  _133
REMARK   59  A    between atoms: _133  and  _134
REMARK   60  A    between atoms: _133  and  _136
REMARK   61  A    between atoms: _136  and  _137
REMARK   62  A    between atoms: _140  and  _142
REMARK   63  A    between atoms: _142  and  _143
REMARK   64  A    between atoms: _145  and  _147
REMARK   65  A    between atoms: _147  and  _148
REMARK   66  A    between atoms: _150  and  _152
REMARK   67  A    between atoms: _152  and  _153
REMARK   68  A    between atoms: _152  and  _155
REMARK   69  A    between atoms: _155  and  _156
REMARK   70  A    between atoms: _159  and  _161
REMARK   71  A    between atoms: _161  and  _162
REMARK   72  A    between atoms: _164  and  _166
REMARK   73  A    between atoms: _166  and  _167
REMARK   74  A    between atoms: _169  and  _171
REMARK   75  A    between atoms: _171  and  _172
REMARK   76  A    between atoms: _171  and  _174
REMARK   77  A    between atoms: _174  and  _175
REMARK   78  A    between atoms: _181  and  _183
REMARK   79  A    between atoms: _183  and  _184
REMARK   80  A    between atoms: _183  and  _186
REMARK   81  A    between atoms: _186  and  _187
REMARK   82  A    between atoms: _190  and  _192
REMARK   83  A    between atoms: _192  and  _193
REMARK   84  A    between atoms: _192  and  _195
REMARK   85  A    between atoms: _198  and  _200
REMARK   86  A    between atoms: _200  and  _201
REMARK   87  A    between atoms: _200  and  _203
REMARK   88  A    between atoms: _203  and  _204
REMARK   89  A    between atoms: _207  and  _209
REMARK   90  A    between atoms: _209  and  _210
REMARK   91  A    between atoms: _209  and  _212
REMARK   92  A    between atoms: _212  and  _213
REMARK   93  A    between atoms: _217  and  _218
REMARK   94  A    between atoms: _223  and  _225
REMARK   95  A    between atoms: _225  and  _226
REMARK   96  A    between atoms: _225  and  _228
REMARK   97  A    between atoms: _231  and  _233
REMARK   98  A    between atoms: _233  and  _234
REMARK   99  A    between atoms: _233  and  _236
REMARK  100  A    between atoms: _236  and  _237
REMARK  101  A    between atoms: _242  and  _244
REMARK  102  A    between atoms: _244  and  _245
REMARK  103  A    between atoms: _244  and  _247
REMARK  104  A    between atoms: _247  and  _248
REMARK  105  A    between atoms: _251  and  _253
REMARK  106  A    between atoms: _253  and  _254
REMARK  107  A    between atoms: _253  and  _256
REMARK  108  A    between atoms: _256  and  _257
REMARK  109  A    between atoms: _260  and  _262
REMARK  110  A    between atoms: _262  and  _263
REMARK  111  A    between atoms: _265  and  _267
REMARK  112  A    between atoms: _267  and  _268
REMARK  113  A    between atoms: _267  and  _270
REMARK  114  A    between atoms: _270  and  _271
REMARK  115  A    between atoms: _271  and  _272
REMARK  116  A    between atoms: _272  and  _273
REMARK  117  A    between atoms: _282  and  _284
REMARK  118  A    between atoms: _284  and  _285
REMARK  119  A    between atoms: _284  and  _287
REMARK  120  A    between atoms: _287  and  _288
REMARK  121  A    between atoms: _288  and  _289
REMARK  122  A    between atoms: _289  and  _290
REMARK  123  A    between atoms: _299  and  _301
REMARK  124  A    between atoms: _301  and  _302
REMARK  125  A    between atoms: _301  and  _304
REMARK  126  A    between atoms: _304  and  _305
REMARK  127  A    between atoms: _308  and  _310
REMARK  128  A    between atoms: _310  and  _311
REMARK  129  A    between atoms: _310  and  _313
REMARK  130  A    between atoms: _313  and  _314
REMARK  131  A    between atoms: _317  and  _319
REMARK  132  A    between atoms: _319  and  _320
REMARK  133  A    between atoms: _319  and  _322
REMARK  134  A    between atoms: _322  and  _323
REMARK  135  A    between atoms: _326  and  _328
REMARK  136  A    between atoms: _328  and  _329
REMARK  137  A    between atoms: _328  and  _331
REMARK  138  A    between atoms: _331  and  _332
REMARK  139  A    between atoms: _335  and  _337
REMARK  140  A    between atoms: _337  and  _338
REMARK  141  A    between atoms: _337  and  _340
REMARK  142  A    between atoms: _340  and  _341
REMARK  143  A    between atoms: _344  and  _346
REMARK  144  A    between atoms: _346  and  _347
REMARK  145  A    between atoms: _349  and  _351
REMARK  146  A    between atoms: _351  and  _352
REMARK  147  A    between atoms: _355  and  _357
REMARK  148  A    between atoms: _357  and  _358
REMARK  149  A    between atoms: _357  and  _360
REMARK  150  A    between atoms: _360  and  _361
REMARK  151  A    between atoms: _364  and  _366
REMARK  152  A    between atoms: _366  and  _367
REMARK  153  A    between atoms: _366  and  _369
REMARK  154  A    between atoms: _369  and  _370
REMARK  155  A    between atoms: _373  and  _375
REMARK  156  A    between atoms: _375  and  _376
REMARK  157  A    between atoms: _375  and  _378
REMARK  158  A    between atoms: _378  and  _379
REMARK  159  A    between atoms: _382  and  _384
REMARK  160  A    between atoms: _384  and  _385
REMARK  161  A    between atoms: _384  and  _387
REMARK  162  A    between atoms: _390  and  _392
REMARK  163  A    between atoms: _392  and  _393
REMARK  164  A    between atoms: _392  and  _395
REMARK  165  A    between atoms: _395  and  _396
REMARK  166  A    between atoms: _396  and  _397
REMARK  167  A    between atoms: _397  and  _398
REMARK  168  A    between atoms: _398  and  _399
REMARK  169  A    between atoms: _403  and  _405
REMARK  170  A    between atoms: _405  and  _406
REMARK  171  A    between atoms: _405  and  _408
REMARK  172  A    between atoms: _408  and  _409
REMARK  173  A    between atoms: _409  and  _410
REMARK  174  A    between atoms: _412  and  _414
REMARK  175  A    between atoms: _414  and  _415
REMARK  176  A    between atoms: _414  and  _417
REMARK  177  A    between atoms: _417  and  _418
REMARK  178  A    between atoms: _421  and  _423
REMARK  179  A    between atoms: _423  and  _424
REMARK  180  A    between atoms: _426  and  _428
REMARK  181  A    between atoms: _428  and  _429
REMARK  182  A    between atoms: _431  and  _433
REMARK  183  A    between atoms: _433  and  _434
REMARK  184  A    between atoms: _433  and  _436
REMARK  185  A    between atoms: _436  and  _437
REMARK  186  A    between atoms: _440  and  _442
REMARK  187  A    between atoms: _442  and  _443
REMARK  188  A    between atoms: _445  and  _447
REMARK  189  A    between atoms: _447  and  _448
REMARK  190  A    between atoms: _450  and  _452
REMARK  191  A    between atoms: _452  and  _453
REMARK  192  A    between atoms: _452  and  _455
REMARK  193  A    between atoms: _455  and  _456
REMARK  194  A    between atoms: _462  and  _464
REMARK  195  A    between atoms: _464  and  _465
REMARK  196  A    between atoms: _464  and  _467
REMARK  197  A    between atoms: _467  and  _468
REMARK  198  A    between atoms: _471  and  _473
REMARK  199  A    between atoms: _473  and  _474
REMARK  200  A    between atoms: _473  and  _476
REMARK  201  A    between atoms: _479  and  _481
REMARK  202  A    between atoms: _481  and  _482
REMARK  203  A    between atoms: _481  and  _484
REMARK  204  A    between atoms: _484  and  _485
REMARK  205  A    between atoms: _489  and  _490
REMARK  206  A    between atoms: _495  and  _497
REMARK  207  A    between atoms: _497  and  _498
REMARK  208  A    between atoms: _497  and  _500
REMARK  209  A    between atoms: _500  and  _501
REMARK  210  A    between atoms: _505  and  _506
REMARK  211  A    between atoms: _511  and  _513
REMARK  212  A    between atoms: _513  and  _514
REMARK  213  A    between atoms: _513  and  _516
REMARK  214  A    between atoms: _519  and  _521
REMARK  215  A    between atoms: _521  and  _522
REMARK  216  A    between atoms: _521  and  _524
REMARK  217  A    between atoms: _524  and  _525
REMARK  218  A    between atoms: _530  and  _532
REMARK  219  A    between atoms: _532  and  _533
REMARK  220  A    between atoms: _532  and  _535
REMARK  221  A    between atoms: _535  and  _536
REMARK  222  A    between atoms: _539  and  _541
REMARK  223  A    between atoms: _541  and  _542
REMARK  224  A    between atoms: _541  and  _544
REMARK  225  A    between atoms: _544  and  _545
REMARK  226  A    between atoms: _548  and  _550
REMARK  227  A    between atoms: _550  and  _551
REMARK  228  A    between atoms: _553  and  _555
REMARK  229  A    between atoms: _555  and  _556
REMARK  230  A    between atoms: _555  and  _558
REMARK  231  A    between atoms: _558  and  _559
REMARK  232  A    between atoms: _559  and  _560
REMARK  233  A    between atoms: _560  and  _561
REMARK                            x       y       z     vdW  Elec       q    Type
REMARK                         _______ _______ _______ _____ _____    ______ ____
ROOT
ATOM      1  O   HOH     1      11.187  30.766   1.371  0.00  0.00    +0.000 OA
ENDROOT
TORSDOF 0
REMARK  Name = ../refined-set-2016/1ec1/1ec1_pocket.pdb
REMARK  233 active torsions:
REMARK  status: ('A' for Active; 'I' for Inactive)
REMARK    1  A    between atoms: _1  and  _3
REMARK    2  A    between atoms: _3  and  _4
REMARK    3  A    between atoms: _3  and  _6
REMARK    4  A    between atoms: _6  and  _7
REMARK    5  A    between atoms: _7  and  _8
REMARK    6  A    between atoms: _8  and  _9
REMARK    7  A    between atoms: _18  and  _20
REMARK    8  A    between atoms: _20  and  _21
REMARK    9  A    between atoms: _20  and  _23
REMARK   10  A    between atoms: _23  and  _24
REMARK   11  A    between atoms: _27  and  _29
REMARK   12  A    between atoms: _29  and  _30
REMARK   13  A    between atoms: _29  and  _32
REMARK   14  A    between atoms: _32  and  _33
REMARK   15  A    between atoms: _36  and  _38
REMARK   16  A    between atoms: _38  and  _39
REMARK   17  A    between atoms: _38  and  _41
REMARK   18  A    between atoms: _41  and  _42
REMARK   19  A    between atoms: _45  and  _47
REMARK   20  A    between atoms: _47  and  _48
REMARK   21  A    between atoms: _47  and  _50
REMARK   22  A    between atoms: _50  and  _51
REMARK   23  A    between atoms: _54  and  _56
REMARK   24  A    between atoms: _56  and  _57
REMARK   25  A    between atoms: _56  and  _59
REMARK   26  A    between atoms: _59  and  _60
REMARK   27  A    between atoms: _63  and  _65
REMARK   28  A    between atoms: _65  and  _66
REMARK   29  A    between atoms: _68  and  _70
REMARK   30  A    between atoms: _70  and  _71
REMARK   31  A    between atoms: _74  and  _76
REMARK   32  A    between atoms: _76  and  _77
REMARK   33  A    between atoms: _76  and  _79
REMARK   34  A    between atoms: _79  and  _80
REMARK   35  A    between atoms: _83  and  _85
REMARK   36  A    between atoms: _85  and  _86
REMARK   37  A    between atoms: _85  and  _88
REMARK   38  A    between atoms: _88  and  _89
REMARK   39  A    between atoms: _92  and  _94
REMARK   40  A    between atoms: _94  and  _95
REMARK   41  A    between atoms: _94  and  _97
REMARK   42  A    between atoms: _97  and  _98
REMARK   43  A    between atoms: _101  and  _103
REMARK   44  A    between atoms: _103  and  _104
REMARK   45  A    between atoms: _103  and  _106
REMARK   46  A    between atoms: _109  and  _111
REMARK   47  A    between atoms: _111  and  _112
REMARK   48  A    between atoms: _111  and  _114
REMARK   49  A    between atoms: _114  and  _115
REMARK   50  A    between atoms: _115  and  _116
REMARK   51  A    between atoms: _116  and  _117
REMARK   52  A    between atoms: _117  and  _118
REMARK   53  A    between atoms: _122  and  _124
REMARK   54  A    between atoms: _124  and  _125
REMARK   55  A    between atoms: _124  and  _127
REMARK   56  A    between atoms: _127  and  _128
REMARK   57  A    between atoms: _128  and  _129
REMARK   58  A    between atoms: _131  and  _133
REMARK   59  A    between atoms: _133  and  _134
REMARK   60  A    between atoms: _133  and  _136
REMARK   61  A    between atoms: _136  and  _137
REMARK   62  A    between atoms: _140  and  _142
REMARK   63  A    between atoms: _142  and  _143
REMARK   64  A    between atoms: _145  and  _147
REMARK   65  A    between atoms: _147  and  _148
REMARK   66  A    between atoms: _150  and  _152
REMARK   67  A    between atoms: _152  and  _153
REMARK   68  A    between atoms: _152  and  _155
REMARK   69  A    between atoms: _155  and  _156
REMARK   70  A    between atoms: _159  and  _161
REMARK   71  A    between atoms: _161  and  _162
REMARK   72  A    between atoms: _164  and  _166
REMARK   73  A    between atoms: _166  and  _167
REMARK   74  A    between atoms: _169  and  _171
REMARK   75  A    between atoms: _171  and  _172
REMARK   76  A    between atoms: _171  and  _174
REMARK   77  A    between atoms: _174  and  _175
REMARK   78  A    between atoms: _181  and  _183
REMARK   79  A    between atoms: _183  and  _184
REMARK   80  A    between atoms: _183  and  _186
REMARK   81  A    between atoms: _186  and  _187
REMARK   82  A    between atoms: _190  and  _192
REMARK   83  A    between atoms: _192  and  _193
REMARK   84  A    between atoms: _192  and  _195
REMARK   85  A    between atoms: _198  and  _200
REMARK   86  A    between atoms: _200  and  _201
REMARK   87  A    between atoms: _200  and  _203
REMARK   88  A    between atoms: _203  and  _204
REMARK   89  A    between atoms: _207  and  _209
REMARK   90  A    between atoms: _209  and  _210
REMARK   91  A    between atoms: _209  and  _212
REMARK   92  A    between atoms: _212  and  _213
REMARK   93  A    between atoms: _217  and  _218
REMARK   94  A    between atoms: _223  and  _225
REMARK   95  A    between atoms: _225  and  _226
REMARK   96  A    between atoms: _225  and  _228
REMARK   97  A    between atoms: _231  and  _233
REMARK   98  A    between atoms: _233  and  _234
REMARK   99  A    between atoms: _233  and  _236
REMARK  100  A    between atoms: _236  and  _237
REMARK  101  A    between atoms: _242  and  _244
REMARK  102  A    between atoms: _244  and  _245
REMARK  103  A    between atoms: _244  and  _247
REMARK  104  A    between atoms: _247  and  _248
REMARK  105  A    between atoms: _251  and  _253
REMARK  106  A    between atoms: _253  and  _254
REMARK  107  A    between atoms: _253  and  _256
REMARK  108  A    between atoms: _256  and  _257
REMARK  109  A    between atoms: _260  and  _262
REMARK  110  A    between atoms: _262  and  _263
REMARK  111  A    between atoms: _265  and  _267
REMARK  112  A    between atoms: _267  and  _268
REMARK  113  A    between atoms: _267  and  _270
REMARK  114  A    between atoms: _270  and  _271
REMARK  115  A    between atoms: _271  and  _272
REMARK  116  A    between atoms: _272  and  _273
REMARK  117  A    between atoms: _282  and  _284
REMARK  118  A    between atoms: _284  and  _285
REMARK  119  A    between atoms: _284  and  _287
REMARK  120  A    between atoms: _287  and  _288
REMARK  121  A    between atoms: _288  and  _289
REMARK  122  A    between atoms: _289  and  _290
REMARK  123  A    between atoms: _299  and  _301
REMARK  124  A    between atoms: _301  and  _302
REMARK  125  A    between atoms: _301  and  _304
REMARK  126  A    between atoms: _304  and  _305
REMARK  127  A    between atoms: _308  and  _310
REMARK  128  A    between atoms: _310  and  _311
REMARK  129  A    between atoms: _310  and  _313
REMARK  130  A    between atoms: _313  and  _314
REMARK  131  A    between atoms: _317  and  _319
REMARK  132  A    between atoms: _319  and  _320
REMARK  133  A    between atoms: _319  and  _322
REMARK  134  A    between atoms: _322  and  _323
REMARK  135  A    between atoms: _326  and  _328
REMARK  136  A    between atoms: _328  and  _329
REMARK  137  A    between atoms: _328  and  _331
REMARK  138  A    between atoms: _331  and  _332
REMARK  139  A    between atoms: _335  and  _337
REMARK  140  A    between atoms: _337  and  _338
REMARK  141  A    between atoms: _337  and  _340
REMARK  142  A    between atoms: _340  and  _341
REMARK  143  A    between atoms: _344  and  _346
REMARK  144  A    between atoms: _346  and  _347
REMARK  145  A    between atoms: _349  and  _351
REMARK  146  A    between atoms: _351  and  _352
REMARK  147  A    between atoms: _355  and  _357
REMARK  148  A    between atoms: _357  and  _358
REMARK  149  A    between atoms: _357  and  _360
REMARK  150  A    between atoms: _360  and  _361
REMARK  151  A    between atoms: _364  and  _366
REMARK  152  A    between atoms: _366  and  _367
REMARK  153  A    between atoms: _366  and  _369
REMARK  154  A    between atoms: _369  and  _370
REMARK  155  A    between atoms: _373  and  _375
REMARK  156  A    between atoms: _375  and  _376
REMARK  157  A    between atoms: _375  and  _378
REMARK  158  A    between atoms: _378  and  _379
REMARK  159  A    between atoms: _382  and  _384
REMARK  160  A    between atoms: _384  and  _385
REMARK  161  A    between atoms: _384  and  _387
REMARK  162  A    between atoms: _390  and  _392
REMARK  163  A    between atoms: _392  and  _393
REMARK  164  A    between atoms: _392  and  _395
REMARK  165  A    between atoms: _395  and  _396
REMARK  166  A    between atoms: _396  and  _397
REMARK  167  A    between atoms: _397  and  _398
REMARK  168  A    between atoms: _398  and  _399
REMARK  169  A    between atoms: _403  and  _405
REMARK  170  A    between atoms: _405  and  _406
REMARK  171  A    between atoms: _405  and  _408
REMARK  172  A    between atoms: _408  and  _409
REMARK  173  A    between atoms: _409  and  _410
REMARK  174  A    between atoms: _412  and  _414
REMARK  175  A    between atoms: _414  and  _415
REMARK  176  A    between atoms: _414  and  _417
REMARK  177  A    between atoms: _417  and  _418
REMARK  178  A    between atoms: _421  and  _423
REMARK  179  A    between atoms: _423  and  _424
REMARK  180  A    between atoms: _426  and  _428
REMARK  181  A    between atoms: _428  and  _429
REMARK  182  A    between atoms: _431  and  _433
REMARK  183  A    between atoms: _433  and  _434
REMARK  184  A    between atoms: _433  and  _436
REMARK  185  A    between atoms: _436  and  _437
REMARK  186  A    between atoms: _440  and  _442
REMARK  187  A    between atoms: _442  and  _443
REMARK  188  A    between atoms: _445  and  _447
REMARK  189  A    between atoms: _447  and  _448
REMARK  190  A    between atoms: _450  and  _452
REMARK  191  A    between atoms: _452  and  _453
REMARK  192  A    between atoms: _452  and  _455
REMARK  193  A    between atoms: _455  and  _456
REMARK  194  A    between atoms: _462  and  _464
REMARK  195  A    between atoms: _464  and  _465
REMARK  196  A    between atoms: _464  and  _467
REMARK  197  A    between atoms: _467  and  _468
REMARK  198  A    between atoms: _471  and  _473
REMARK  199  A    between atoms: _473  and  _474
REMARK  200  A    between atoms: _473  and  _476
REMARK  201  A    between atoms: _479  and  _481
REMARK  202  A    between atoms: _481  and  _482
REMARK  203  A    between atoms: _481  and  _484
REMARK  204  A    between atoms: _484  and  _485
REMARK  205  A    between atoms: _489  and  _490
REMARK  206  A    between atoms: _495  and  _497
REMARK  207  A    between atoms: _497  and  _498
REMARK  208  A    between atoms: _497  and  _500
REMARK  209  A    between atoms: _500  and  _501
REMARK  210  A    between atoms: _505  and  _506
REMARK  211  A    between atoms: _511  and  _513
REMARK  212  A    between atoms: _513  and  _514
REMARK  213  A    between atoms: _513  and  _516
REMARK  214  A    between atoms: _519  and  _521
REMARK  215  A    between atoms: _521  and  _522
REMARK  216  A    between atoms: _521  and  _524
REMARK  217  A    between atoms: _524  and  _525
REMARK  218  A    between atoms: _530  and  _532
REMARK  219  A    between atoms: _532  and  _533
REMARK  220  A    between atoms: _532  and  _535
REMARK  221  A    between atoms: _535  and  _536
REMARK  222  A    between atoms: _539  and  _541
REMARK  223  A    between atoms: _541  and  _542
REMARK  224  A    between atoms: _541  and  _544
REMARK  225  A    between atoms: _544  and  _545
REMARK  226  A    between atoms: _548  and  _550
REMARK  227  A    between atoms: _550  and  _551
REMARK  228  A    between atoms: _553  and  _555
REMARK  229  A    between atoms: _555  and  _556
REMARK  230  A    between atoms: _555  and  _558
REMARK  231  A    between atoms: _558  and  _559
REMARK  232  A    between atoms: _559  and  _560
REMARK  233  A    between atoms: _560  and  _561
REMARK                            x       y       z     vdW  Elec       q    Type
REMARK                         _______ _______ _______ _____ _____    ______ ____
ROOT
ATOM      1  O   HOH     1      11.670  21.273   6.671  0.00  0.00    +0.000 OA
ENDROOT
TORSDOF 0
REMARK  Name = ../refined-set-2016/1ec1/1ec1_pocket.pdb
REMARK  233 active torsions:
REMARK  status: ('A' for Active; 'I' for Inactive)
REMARK    1  A    between atoms: _1  and  _3
REMARK    2  A    between atoms: _3  and  _4
REMARK    3  A    between atoms: _3  and  _6
REMARK    4  A    between atoms: _6  and  _7
REMARK    5  A    between atoms: _7  and  _8
REMARK    6  A    between atoms: _8  and  _9
REMARK    7  A    between atoms: _18  and  _20
REMARK    8  A    between atoms: _20  and  _21
REMARK    9  A    between atoms: _20  and  _23
REMARK   10  A    between atoms: _23  and  _24
REMARK   11  A    between atoms: _27  and  _29
REMARK   12  A    between atoms: _29  and  _30
REMARK   13  A    between atoms: _29  and  _32
REMARK   14  A    between atoms: _32  and  _33
REMARK   15  A    between atoms: _36  and  _38
REMARK   16  A    between atoms: _38  and  _39
REMARK   17  A    between atoms: _38  and  _41
REMARK   18  A    between atoms: _41  and  _42
REMARK   19  A    between atoms: _45  and  _47
REMARK   20  A    between atoms: _47  and  _48
REMARK   21  A    between atoms: _47  and  _50
REMARK   22  A    between atoms: _50  and  _51
REMARK   23  A    between atoms: _54  and  _56
REMARK   24  A    between atoms: _56  and  _57
REMARK   25  A    between atoms: _56  and  _59
REMARK   26  A    between atoms: _59  and  _60
REMARK   27  A    between atoms: _63  and  _65
REMARK   28  A    between atoms: _65  and  _66
REMARK   29  A    between atoms: _68  and  _70
REMARK   30  A    between atoms: _70  and  _71
REMARK   31  A    between atoms: _74  and  _76
REMARK   32  A    between atoms: _76  and  _77
REMARK   33  A    between atoms: _76  and  _79
REMARK   34  A    between atoms: _79  and  _80
REMARK   35  A    between atoms: _83  and  _85
REMARK   36  A    between atoms: _85  and  _86
REMARK   37  A    between atoms: _85  and  _88
REMARK   38  A    between atoms: _88  and  _89
REMARK   39  A    between atoms: _92  and  _94
REMARK   40  A    between atoms: _94  and  _95
REMARK   41  A    between atoms: _94  and  _97
REMARK   42  A    between atoms: _97  and  _98
REMARK   43  A    between atoms: _101  and  _103
REMARK   44  A    between atoms: _103  and  _104
REMARK   45  A    between atoms: _103  and  _106
REMARK   46  A    between atoms: _109  and  _111
REMARK   47  A    between atoms: _111  and  _112
REMARK   48  A    between atoms: _111  and  _114
REMARK   49  A    between atoms: _114  and  _115
REMARK   50  A    between atoms: _115  and  _116
REMARK   51  A    between atoms: _116  and  _117
REMARK   52  A    between atoms: _117  and  _118
REMARK   53  A    between atoms: _122  and  _124
REMARK   54  A    between atoms: _124  and  _125
REMARK   55  A    between atoms: _124  and  _127
REMARK   56  A    between atoms: _127  and  _128
REMARK   57  A    between atoms: _128  and  _129
REMARK   58  A    between atoms: _131  and  _133
REMARK   59  A    between atoms: _133  and  _134
REMARK   60  A    between atoms: _133  and  _136
REMARK   61  A    between atoms: _136  and  _137
REMARK   62  A    between atoms: _140  and  _142
REMARK   63  A    between atoms: _142  and  _143
REMARK   64  A    between atoms: _145  and  _147
REMARK   65  A    between atoms: _147  and  _148
REMARK   66  A    between atoms: _150  and  _152
REMARK   67  A    between atoms: _152  and  _153
REMARK   68  A    between atoms: _152  and  _155
REMARK   69  A    between atoms: _155  and  _156
REMARK   70  A    between atoms: _159  and  _161
REMARK   71  A    between atoms: _161  and  _162
REMARK   72  A    between atoms: _164  and  _166
REMARK   73  A    between atoms: _166  and  _167
REMARK   74  A    between atoms: _169  and  _171
REMARK   75  A    between atoms: _171  and  _172
REMARK   76  A    between atoms: _171  and  _174
REMARK   77  A    between atoms: _174  and  _175
REMARK   78  A    between atoms: _181  and  _183
REMARK   79  A    between atoms: _183  and  _184
REMARK   80  A    between atoms: _183  and  _186
REMARK   81  A    between atoms: _186  and  _187
REMARK   82  A    between atoms: _190  and  _192
REMARK   83  A    between atoms: _192  and  _193
REMARK   84  A    between atoms: _192  and  _195
REMARK   85  A    between atoms: _198  and  _200
REMARK   86  A    between atoms: _200  and  _201
REMARK   87  A    between atoms: _200  and  _203
REMARK   88  A    between atoms: _203  and  _204
REMARK   89  A    between atoms: _207  and  _209
REMARK   90  A    between atoms: _209  and  _210
REMARK   91  A    between atoms: _209  and  _212
REMARK   92  A    between atoms: _212  and  _213
REMARK   93  A    between atoms: _217  and  _218
REMARK   94  A    between atoms: _223  and  _225
REMARK   95  A    between atoms: _225  and  _226
REMARK   96  A    between atoms: _225  and  _228
REMARK   97  A    between atoms: _231  and  _233
REMARK   98  A    between atoms: _233  and  _234
REMARK   99  A    between atoms: _233  and  _236
REMARK  100  A    between atoms: _236  and  _237
REMARK  101  A    between atoms: _242  and  _244
REMARK  102  A    between atoms: _244  and  _245
REMARK  103  A    between atoms: _244  and  _247
REMARK  104  A    between atoms: _247  and  _248
REMARK  105  A    between atoms: _251  and  _253
REMARK  106  A    between atoms: _253  and  _254
REMARK  107  A    between atoms: _253  and  _256
REMARK  108  A    between atoms: _256  and  _257
REMARK  109  A    between atoms: _260  and  _262
REMARK  110  A    between atoms: _262  and  _263
REMARK  111  A    between atoms: _265  and  _267
REMARK  112  A    between atoms: _267  and  _268
REMARK  113  A    between atoms: _267  and  _270
REMARK  114  A    between atoms: _270  and  _271
REMARK  115  A    between atoms: _271  and  _272
REMARK  116  A    between atoms: _272  and  _273
REMARK  117  A    between atoms: _282  and  _284
REMARK  118  A    between atoms: _284  and  _285
REMARK  119  A    between atoms: _284  and  _287
REMARK  120  A    between atoms: _287  and  _288
REMARK  121  A    between atoms: _288  and  _289
REMARK  122  A    between atoms: _289  and  _290
REMARK  123  A    between atoms: _299  and  _301
REMARK  124  A    between atoms: _301  and  _302
REMARK  125  A    between atoms: _301  and  _304
REMARK  126  A    between atoms: _304  and  _305
REMARK  127  A    between atoms: _308  and  _310
REMARK  128  A    between atoms: _310  and  _311
REMARK  129  A    between atoms: _310  and  _313
REMARK  130  A    between atoms: _313  and  _314
REMARK  131  A    between atoms: _317  and  _319
REMARK  132  A    between atoms: _319  and  _320
REMARK  133  A    between atoms: _319  and  _322
REMARK  134  A    between atoms: _322  and  _323
REMARK  135  A    between atoms: _326  and  _328
REMARK  136  A    between atoms: _328  and  _329
REMARK  137  A    between atoms: _328  and  _331
REMARK  138  A    between atoms: _331  and  _332
REMARK  139  A    between atoms: _335  and  _337
REMARK  140  A    between atoms: _337  and  _338
REMARK  141  A    between atoms: _337  and  _340
REMARK  142  A    between atoms: _340  and  _341
REMARK  143  A    between atoms: _344  and  _346
REMARK  144  A    between atoms: _346  and  _347
REMARK  145  A    between atoms: _349  and  _351
REMARK  146  A    between atoms: _351  and  _352
REMARK  147  A    between atoms: _355  and  _357
REMARK  148  A    between atoms: _357  and  _358
REMARK  149  A    between atoms: _357  and  _360
REMARK  150  A    between atoms: _360  and  _361
REMARK  151  A    between atoms: _364  and  _366
REMARK  152  A    between atoms: _366  and  _367
REMARK  153  A    between atoms: _366  and  _369
REMARK  154  A    between atoms: _369  and  _370
REMARK  155  A    between atoms: _373  and  _375
REMARK  156  A    between atoms: _375  and  _376
REMARK  157  A    between atoms: _375  and  _378
REMARK  158  A    between atoms: _378  and  _379
REMARK  159  A    between atoms: _382  and  _384
REMARK  160  A    between atoms: _384  and  _385
REMARK  161  A    between atoms: _384  and  _387
REMARK  162  A    between atoms: _390  and  _392
REMARK  163  A    between atoms: _392  and  _393
REMARK  164  A    between atoms: _392  and  _395
REMARK  165  A    between atoms: _395  and  _396
REMARK  166  A    between atoms: _396  and  _397
REMARK  167  A    between atoms: _397  and  _398
REMARK  168  A    between atoms: _398  and  _399
REMARK  169  A    between atoms: _403  and  _405
REMARK  170  A    between atoms: _405  and  _406
REMARK  171  A    between atoms: _405  and  _408
REMARK  172  A    between atoms: _408  and  _409
REMARK  173  A    between atoms: _409  and  _410
REMARK  174  A    between atoms: _412  and  _414
REMARK  175  A    between atoms: _414  and  _415
REMARK  176  A    between atoms: _414  and  _417
REMARK  177  A    between atoms: _417  and  _418
REMARK  178  A    between atoms: _421  and  _423
REMARK  179  A    between atoms: _423  and  _424
REMARK  180  A    between atoms: _426  and  _428
REMARK  181  A    between atoms: _428  and  _429
REMARK  182  A    between atoms: _431  and  _433
REMARK  183  A    between atoms: _433  and  _434
REMARK  184  A    between atoms: _433  and  _436
REMARK  185  A    between atoms: _436  and  _437
REMARK  186  A    between atoms: _440  and  _442
REMARK  187  A    between atoms: _442  and  _443
REMARK  188  A    between atoms: _445  and  _447
REMARK  189  A    between atoms: _447  and  _448
REMARK  190  A    between atoms: _450  and  _452
REMARK  191  A    between atoms: _452  and  _453
REMARK  192  A    between atoms: _452  and  _455
REMARK  193  A    between atoms: _455  and  _456
REMARK  194  A    between atoms: _462  and  _464
REMARK  195  A    between atoms: _464  and  _465
REMARK  196  A    between atoms: _464  and  _467
REMARK  197  A    between atoms: _467  and  _468
REMARK  198  A    between atoms: _471  and  _473
REMARK  199  A    between atoms: _473  and  _474
REMARK  200  A    between atoms: _473  and  _476
REMARK  201  A    between atoms: _479  and  _481
REMARK  202  A    between atoms: _481  and  _482
REMARK  203  A    between atoms: _481  and  _484
REMARK  204  A    between atoms: _484  and  _485
REMARK  205  A    between atoms: _489  and  _490
REMARK  206  A    between atoms: _495  and  _497
REMARK  207  A    between atoms: _497  and  _498
REMARK  208  A    between atoms: _497  and  _500
REMARK  209  A    between atoms: _500  and  _501
REMARK  210  A    between atoms: _505  and  _506
REMARK  211  A    between atoms: _511  and  _513
REMARK  212  A    between atoms: _513  and  _514
REMARK  213  A    between atoms: _513  and  _516
REMARK  214  A    between atoms: _519  and  _521
REMARK  215  A    between atoms: _521  and  _522
REMARK  216  A    between atoms: _521  and  _524
REMARK  217  A    between atoms: _524  and  _525
REMARK  218  A    between atoms: _530  and  _532
REMARK  219  A    between atoms: _532  and  _533
REMARK  220  A    between atoms: _532  and  _535
REMARK  221  A    between atoms: _535  and  _536
REMARK  222  A    between atoms: _539  and  _541
REMARK  223  A    between atoms: _541  and  _542
REMARK  224  A    between atoms: _541  and  _544
REMARK  225  A    between atoms: _544  and  _545
REMARK  226  A    between atoms: _548  and  _550
REMARK  227  A    between atoms: _550  and  _551
REMARK  228  A    between atoms: _553  and  _555
REMARK  229  A    between atoms: _555  and  _556
REMARK  230  A    between atoms: _555  and  _558
REMARK  231  A    between atoms: _558  and  _559
REMARK  232  A    between atoms: _559  and  _560
REMARK  233  A    between atoms: _560  and  _561
REMARK                            x       y       z     vdW  Elec       q    Type
REMARK                         _______ _______ _______ _____ _____    ______ ____
ROOT
ATOM      1  O   HOH     1       3.502  26.351   7.351  0.00  0.00    +0.000 OA
ENDROOT
TORSDOF 0
REMARK  Name = ../refined-set-2016/1ec1/1ec1_pocket.pdb
REMARK  233 active torsions:
REMARK  status: ('A' for Active; 'I' for Inactive)
REMARK    1  A    between atoms: _1  and  _3
REMARK    2  A    between atoms: _3  and  _4
REMARK    3  A    between atoms: _3  and  _6
REMARK    4  A    between atoms: _6  and  _7
REMARK    5  A    between atoms: _7  and  _8
REMARK    6  A    between atoms: _8  and  _9
REMARK    7  A    between atoms: _18  and  _20
REMARK    8  A    between atoms: _20  and  _21
REMARK    9  A    between atoms: _20  and  _23
REMARK   10  A    between atoms: _23  and  _24
REMARK   11  A    between atoms: _27  and  _29
REMARK   12  A    between atoms: _29  and  _30
REMARK   13  A    between atoms: _29  and  _32
REMARK   14  A    between atoms: _32  and  _33
REMARK   15  A    between atoms: _36  and  _38
REMARK   16  A    between atoms: _38  and  _39
REMARK   17  A    between atoms: _38  and  _41
REMARK   18  A    between atoms: _41  and  _42
REMARK   19  A    between atoms: _45  and  _47
REMARK   20  A    between atoms: _47  and  _48
REMARK   21  A    between atoms: _47  and  _50
REMARK   22  A    between atoms: _50  and  _51
REMARK   23  A    between atoms: _54  and  _56
REMARK   24  A    between atoms: _56  and  _57
REMARK   25  A    between atoms: _56  and  _59
REMARK   26  A    between atoms: _59  and  _60
REMARK   27  A    between atoms: _63  and  _65
REMARK   28  A    between atoms: _65  and  _66
REMARK   29  A    between atoms: _68  and  _70
REMARK   30  A    between atoms: _70  and  _71
REMARK   31  A    between atoms: _74  and  _76
REMARK   32  A    between atoms: _76  and  _77
REMARK   33  A    between atoms: _76  and  _79
REMARK   34  A    between atoms: _79  and  _80
REMARK   35  A    between atoms: _83  and  _85
REMARK   36  A    between atoms: _85  and  _86
REMARK   37  A    between atoms: _85  and  _88
REMARK   38  A    between atoms: _88  and  _89
REMARK   39  A    between atoms: _92  and  _94
REMARK   40  A    between atoms: _94  and  _95
REMARK   41  A    between atoms: _94  and  _97
REMARK   42  A    between atoms: _97  and  _98
REMARK   43  A    between atoms: _101  and  _103
REMARK   44  A    between atoms: _103  and  _104
REMARK   45  A    between atoms: _103  and  _106
REMARK   46  A    between atoms: _109  and  _111
REMARK   47  A    between atoms: _111  and  _112
REMARK   48  A    between atoms: _111  and  _114
REMARK   49  A    between atoms: _114  and  _115
REMARK   50  A    between atoms: _115  and  _116
REMARK   51  A    between atoms: _116  and  _117
REMARK   52  A    between atoms: _117  and  _118
REMARK   53  A    between atoms: _122  and  _124
REMARK   54  A    between atoms: _124  and  _125
REMARK   55  A    between atoms: _124  and  _127
REMARK   56  A    between atoms: _127  and  _128
REMARK   57  A    between atoms: _128  and  _129
REMARK   58  A    between atoms: _131  and  _133
REMARK   59  A    between atoms: _133  and  _134
REMARK   60  A    between atoms: _133  and  _136
REMARK   61  A    between atoms: _136  and  _137
REMARK   62  A    between atoms: _140  and  _142
REMARK   63  A    between atoms: _142  and  _143
REMARK   64  A    between atoms: _145  and  _147
REMARK   65  A    between atoms: _147  and  _148
REMARK   66  A    between atoms: _150  and  _152
REMARK   67  A    between atoms: _152  and  _153
REMARK   68  A    between atoms: _152  and  _155
REMARK   69  A    between atoms: _155  and  _156
REMARK   70  A    between atoms: _159  and  _161
REMARK   71  A    between atoms: _161  and  _162
REMARK   72  A    between atoms: _164  and  _166
REMARK   73  A    between atoms: _166  and  _167
REMARK   74  A    between atoms: _169  and  _171
REMARK   75  A    between atoms: _171  and  _172
REMARK   76  A    between atoms: _171  and  _174
REMARK   77  A    between atoms: _174  and  _175
REMARK   78  A    between atoms: _181  and  _183
REMARK   79  A    between atoms: _183  and  _184
REMARK   80  A    between atoms: _183  and  _186
REMARK   81  A    between atoms: _186  and  _187
REMARK   82  A    between atoms: _190  and  _192
REMARK   83  A    between atoms: _192  and  _193
REMARK   84  A    between atoms: _192  and  _195
REMARK   85  A    between atoms: _198  and  _200
REMARK   86  A    between atoms: _200  and  _201
REMARK   87  A    between atoms: _200  and  _203
REMARK   88  A    between atoms: _203  and  _204
REMARK   89  A    between atoms: _207  and  _209
REMARK   90  A    between atoms: _209  and  _210
REMARK   91  A    between atoms: _209  and  _212
REMARK   92  A    between atoms: _212  and  _213
REMARK   93  A    between atoms: _217  and  _218
REMARK   94  A    between atoms: _223  and  _225
REMARK   95  A    between atoms: _225  and  _226
REMARK   96  A    between atoms: _225  and  _228
REMARK   97  A    between atoms: _231  and  _233
REMARK   98  A    between atoms: _233  and  _234
REMARK   99  A    between atoms: _233  and  _236
REMARK  100  A    between atoms: _236  and  _237
REMARK  101  A    between atoms: _242  and  _244
REMARK  102  A    between atoms: _244  and  _245
REMARK  103  A    between atoms: _244  and  _247
REMARK  104  A    between atoms: _247  and  _248
REMARK  105  A    between atoms: _251  and  _253
REMARK  106  A    between atoms: _253  and  _254
REMARK  107  A    between atoms: _253  and  _256
REMARK  108  A    between atoms: _256  and  _257
REMARK  109  A    between atoms: _260  and  _262
REMARK  110  A    between atoms: _262  and  _263
REMARK  111  A    between atoms: _265  and  _267
REMARK  112  A    between atoms: _267  and  _268
REMARK  113  A    between atoms: _267  and  _270
REMARK  114  A    between atoms: _270  and  _271
REMARK  115  A    between atoms: _271  and  _272
REMARK  116  A    between atoms: _272  and  _273
REMARK  117  A    between atoms: _282  and  _284
REMARK  118  A    between atoms: _284  and  _285
REMARK  119  A    between atoms: _284  and  _287
REMARK  120  A    between atoms: _287  and  _288
REMARK  121  A    between atoms: _288  and  _289
REMARK  122  A    between atoms: _289  and  _290
REMARK  123  A    between atoms: _299  and  _301
REMARK  124  A    between atoms: _301  and  _302
REMARK  125  A    between atoms: _301  and  _304
REMARK  126  A    between atoms: _304  and  _305
REMARK  127  A    between atoms: _308  and  _310
REMARK  128  A    between atoms: _310  and  _311
REMARK  129  A    between atoms: _310  and  _313
REMARK  130  A    between atoms: _313  and  _314
REMARK  131  A    between atoms: _317  and  _319
REMARK  132  A    between atoms: _319  and  _320
REMARK  133  A    between atoms: _319  and  _322
REMARK  134  A    between atoms: _322  and  _323
REMARK  135  A    between atoms: _326  and  _328
REMARK  136  A    between atoms: _328  and  _329
REMARK  137  A    between atoms: _328  and  _331
REMARK  138  A    between atoms: _331  and  _332
REMARK  139  A    between atoms: _335  and  _337
REMARK  140  A    between atoms: _337  and  _338
REMARK  141  A    between atoms: _337  and  _340
REMARK  142  A    between atoms: _340  and  _341
REMARK  143  A    between atoms: _344  and  _346
REMARK  144  A    between atoms: _346  and  _347
REMARK  145  A    between atoms: _349  and  _351
REMARK  146  A    between atoms: _351  and  _352
REMARK  147  A    between atoms: _355  and  _357
REMARK  148  A    between atoms: _357  and  _358
REMARK  149  A    between atoms: _357  and  _360
REMARK  150  A    between atoms: _360  and  _361
REMARK  151  A    between atoms: _364  and  _366
REMARK  152  A    between atoms: _366  and  _367
REMARK  153  A    between atoms: _366  and  _369
REMARK  154  A    between atoms: _369  and  _370
REMARK  155  A    between atoms: _373  and  _375
REMARK  156  A    between atoms: _375  and  _376
REMARK  157  A    between atoms: _375  and  _378
REMARK  158  A    between atoms: _378  and  _379
REMARK  159  A    between atoms: _382  and  _384
REMARK  160  A    between atoms: _384  and  _385
REMARK  161  A    between atoms: _384  and  _387
REMARK  162  A    between atoms: _390  and  _392
REMARK  163  A    between atoms: _392  and  _393
REMARK  164  A    between atoms: _392  and  _395
REMARK  165  A    between atoms: _395  and  _396
REMARK  166  A    between atoms: _396  and  _397
REMARK  167  A    between atoms: _397  and  _398
REMARK  168  A    between atoms: _398  and  _399
REMARK  169  A    between atoms: _403  and  _405
REMARK  170  A    between atoms: _405  and  _406
REMARK  171  A    between atoms: _405  and  _408
REMARK  172  A    between atoms: _408  and  _409
REMARK  173  A    between atoms: _409  and  _410
REMARK  174  A    between atoms: _412  and  _414
REMARK  175  A    between atoms: _414  and  _415
REMARK  176  A    between atoms: _414  and  _417
REMARK  177  A    between atoms: _417  and  _418
REMARK  178  A    between atoms: _421  and  _423
REMARK  179  A    between atoms: _423  and  _424
REMARK  180  A    between atoms: _426  and  _428
REMARK  181  A    between atoms: _428  and  _429
REMARK  182  A    between atoms: _431  and  _433
REMARK  183  A    between atoms: _433  and  _434
REMARK  184  A    between atoms: _433  and  _436
REMARK  185  A    between atoms: _436  and  _437
REMARK  186  A    between atoms: _440  and  _442
REMARK  187  A    between atoms: _442  and  _443
REMARK  188  A    between atoms: _445  and  _447
REMARK  189  A    between atoms: _447  and  _448
REMARK  190  A    between atoms: _450  and  _452
REMARK  191  A    between atoms: _452  and  _453
REMARK  192  A    between atoms: _452  and  _455
REMARK  193  A    between atoms: _455  and  _456
REMARK  194  A    between atoms: _462  and  _464
REMARK  195  A    between atoms: _464  and  _465
REMARK  196  A    between atoms: _464  and  _467
REMARK  197  A    between atoms: _467  and  _468
REMARK  198  A    between atoms: _471  and  _473
REMARK  199  A    between atoms: _473  and  _474
REMARK  200  A    between atoms: _473  and  _476
REMARK  201  A    between atoms: _479  and  _481
REMARK  202  A    between atoms: _481  and  _482
REMARK  203  A    between atoms: _481  and  _484
REMARK  204  A    between atoms: _484  and  _485
REMARK  205  A    between atoms: _489  and  _490
REMARK  206  A    between atoms: _495  and  _497
REMARK  207  A    between atoms: _497  and  _498
REMARK  208  A    between atoms: _497  and  _500
REMARK  209  A    between atoms: _500  and  _501
REMARK  210  A    between atoms: _505  and  _506
REMARK  211  A    between atoms: _511  and  _513
REMARK  212  A    between atoms: _513  and  _514
REMARK  213  A    between atoms: _513  and  _516
REMARK  214  A    between atoms: _519  and  _521
REMARK  215  A    between atoms: _521  and  _522
REMARK  216  A    between atoms: _521  and  _524
REMARK  217  A    between atoms: _524  and  _525
REMARK  218  A    between atoms: _530  and  _532
REMARK  219  A    between atoms: _532  and  _533
REMARK  220  A    between atoms: _532  and  _535
REMARK  221  A    between atoms: _535  and  _536
REMARK  222  A    between atoms: _539  and  _541
REMARK  223  A    between atoms: _541  and  _542
REMARK  224  A    between atoms: _541  and  _544
REMARK  225  A    between atoms: _544  and  _545
REMARK  226  A    between atoms: _548  and  _550
REMARK  227  A    between atoms: _550  and  _551
REMARK  228  A    between atoms: _553  and  _555
REMARK  229  A    between atoms: _555  and  _556
REMARK  230  A    between atoms: _555  and  _558
REMARK  231  A    between atoms: _558  and  _559
REMARK  232  A    between atoms: _559  and  _560
REMARK  233  A    between atoms: _560  and  _561
REMARK                            x       y       z     vdW  Elec       q    Type
REMARK                         _______ _______ _______ _____ _____    ______ ____
ROOT
ATOM      1  O   HOH     1       4.332  30.555   5.627  0.00  0.00    +0.000 OA
ENDROOT
TORSDOF 0
REMARK  Name = ../refined-set-2016/1ec1/1ec1_pocket.pdb
REMARK  233 active torsions:
REMARK  status: ('A' for Active; 'I' for Inactive)
REMARK    1  A    between atoms: _1  and  _3
REMARK    2  A    between atoms: _3  and  _4
REMARK    3  A    between atoms: _3  and  _6
REMARK    4  A    between atoms: _6  and  _7
REMARK    5  A    between atoms: _7  and  _8
REMARK    6  A    between atoms: _8  and  _9
REMARK    7  A    between atoms: _18  and  _20
REMARK    8  A    between atoms: _20  and  _21
REMARK    9  A    between atoms: _20  and  _23
REMARK   10  A    between atoms: _23  and  _24
REMARK   11  A    between atoms: _27  and  _29
REMARK   12  A    between atoms: _29  and  _30
REMARK   13  A    between atoms: _29  and  _32
REMARK   14  A    between atoms: _32  and  _33
REMARK   15  A    between atoms: _36  and  _38
REMARK   16  A    between atoms: _38  and  _39
REMARK   17  A    between atoms: _38  and  _41
REMARK   18  A    between atoms: _41  and  _42
REMARK   19  A    between atoms: _45  and  _47
REMARK   20  A    between atoms: _47  and  _48
REMARK   21  A    between atoms: _47  and  _50
REMARK   22  A    between atoms: _50  and  _51
REMARK   23  A    between atoms: _54  and  _56
REMARK   24  A    between atoms: _56  and  _57
REMARK   25  A    between atoms: _56  and  _59
REMARK   26  A    between atoms: _59  and  _60
REMARK   27  A    between atoms: _63  and  _65
REMARK   28  A    between atoms: _65  and  _66
REMARK   29  A    between atoms: _68  and  _70
REMARK   30  A    between atoms: _70  and  _71
REMARK   31  A    between atoms: _74  and  _76
REMARK   32  A    between atoms: _76  and  _77
REMARK   33  A    between atoms: _76  and  _79
REMARK   34  A    between atoms: _79  and  _80
REMARK   35  A    between atoms: _83  and  _85
REMARK   36  A    between atoms: _85  and  _86
REMARK   37  A    between atoms: _85  and  _88
REMARK   38  A    between atoms: _88  and  _89
REMARK   39  A    between atoms: _92  and  _94
REMARK   40  A    between atoms: _94  and  _95
REMARK   41  A    between atoms: _94  and  _97
REMARK   42  A    between atoms: _97  and  _98
REMARK   43  A    between atoms: _101  and  _103
REMARK   44  A    between atoms: _103  and  _104
REMARK   45  A    between atoms: _103  and  _106
REMARK   46  A    between atoms: _109  and  _111
REMARK   47  A    between atoms: _111  and  _112
REMARK   48  A    between atoms: _111  and  _114
REMARK   49  A    between atoms: _114  and  _115
REMARK   50  A    between atoms: _115  and  _116
REMARK   51  A    between atoms: _116  and  _117
REMARK   52  A    between atoms: _117  and  _118
REMARK   53  A    between atoms: _122  and  _124
REMARK   54  A    between atoms: _124  and  _125
REMARK   55  A    between atoms: _124  and  _127
REMARK   56  A    between atoms: _127  and  _128
REMARK   57  A    between atoms: _128  and  _129
REMARK   58  A    between atoms: _131  and  _133
REMARK   59  A    between atoms: _133  and  _134
REMARK   60  A    between atoms: _133  and  _136
REMARK   61  A    between atoms: _136  and  _137
REMARK   62  A    between atoms: _140  and  _142
REMARK   63  A    between atoms: _142  and  _143
REMARK   64  A    between atoms: _145  and  _147
REMARK   65  A    between atoms: _147  and  _148
REMARK   66  A    between atoms: _150  and  _152
REMARK   67  A    between atoms: _152  and  _153
REMARK   68  A    between atoms: _152  and  _155
REMARK   69  A    between atoms: _155  and  _156
REMARK   70  A    between atoms: _159  and  _161
REMARK   71  A    between atoms: _161  and  _162
REMARK   72  A    between atoms: _164  and  _166
REMARK   73  A    between atoms: _166  and  _167
REMARK   74  A    between atoms: _169  and  _171
REMARK   75  A    between atoms: _171  and  _172
REMARK   76  A    between atoms: _171  and  _174
REMARK   77  A    between atoms: _174  and  _175
REMARK   78  A    between atoms: _181  and  _183
REMARK   79  A    between atoms: _183  and  _184
REMARK   80  A    between atoms: _183  and  _186
REMARK   81  A    between atoms: _186  and  _187
REMARK   82  A    between atoms: _190  and  _192
REMARK   83  A    between atoms: _192  and  _193
REMARK   84  A    between atoms: _192  and  _195
REMARK   85  A    between atoms: _198  and  _200
REMARK   86  A    between atoms: _200  and  _201
REMARK   87  A    between atoms: _200  and  _203
REMARK   88  A    between atoms: _203  and  _204
REMARK   89  A    between atoms: _207  and  _209
REMARK   90  A    between atoms: _209  and  _210
REMARK   91  A    between atoms: _209  and  _212
REMARK   92  A    between atoms: _212  and  _213
REMARK   93  A    between atoms: _217  and  _218
REMARK   94  A    between atoms: _223  and  _225
REMARK   95  A    between atoms: _225  and  _226
REMARK   96  A    between atoms: _225  and  _228
REMARK   97  A    between atoms: _231  and  _233
REMARK   98  A    between atoms: _233  and  _234
REMARK   99  A    between atoms: _233  and  _236
REMARK  100  A    between atoms: _236  and  _237
REMARK  101  A    between atoms: _242  and  _244
REMARK  102  A    between atoms: _244  and  _245
REMARK  103  A    between atoms: _244  and  _247
REMARK  104  A    between atoms: _247  and  _248
REMARK  105  A    between atoms: _251  and  _253
REMARK  106  A    between atoms: _253  and  _254
REMARK  107  A    between atoms: _253  and  _256
REMARK  108  A    between atoms: _256  and  _257
REMARK  109  A    between atoms: _260  and  _262
REMARK  110  A    between atoms: _262  and  _263
REMARK  111  A    between atoms: _265  and  _267
REMARK  112  A    between atoms: _267  and  _268
REMARK  113  A    between atoms: _267  and  _270
REMARK  114  A    between atoms: _270  and  _271
REMARK  115  A    between atoms: _271  and  _272
REMARK  116  A    between atoms: _272  and  _273
REMARK  117  A    between atoms: _282  and  _284
REMARK  118  A    between atoms: _284  and  _285
REMARK  119  A    between atoms: _284  and  _287
REMARK  120  A    between atoms: _287  and  _288
REMARK  121  A    between atoms: _288  and  _289
REMARK  122  A    between atoms: _289  and  _290
REMARK  123  A    between atoms: _299  and  _301
REMARK  124  A    between atoms: _301  and  _302
REMARK  125  A    between atoms: _301  and  _304
REMARK  126  A    between atoms: _304  and  _305
REMARK  127  A    between atoms: _308  and  _310
REMARK  128  A    between atoms: _310  and  _311
REMARK  129  A    between atoms: _310  and  _313
REMARK  130  A    between atoms: _313  and  _314
REMARK  131  A    between atoms: _317  and  _319
REMARK  132  A    between atoms: _319  and  _320
REMARK  133  A    between atoms: _319  and  _322
REMARK  134  A    between atoms: _322  and  _323
REMARK  135  A    between atoms: _326  and  _328
REMARK  136  A    between atoms: _328  and  _329
REMARK  137  A    between atoms: _328  and  _331
REMARK  138  A    between atoms: _331  and  _332
REMARK  139  A    between atoms: _335  and  _337
REMARK  140  A    between atoms: _337  and  _338
REMARK  141  A    between atoms: _337  and  _340
REMARK  142  A    between atoms: _340  and  _341
REMARK  143  A    between atoms: _344  and  _346
REMARK  144  A    between atoms: _346  and  _347
REMARK  145  A    between atoms: _349  and  _351
REMARK  146  A    between atoms: _351  and  _352
REMARK  147  A    between atoms: _355  and  _357
REMARK  148  A    between atoms: _357  and  _358
REMARK  149  A    between atoms: _357  and  _360
REMARK  150  A    between atoms: _360  and  _361
REMARK  151  A    between atoms: _364  and  _366
REMARK  152  A    between atoms: _366  and  _367
REMARK  153  A    between atoms: _366  and  _369
REMARK  154  A    between atoms: _369  and  _370
REMARK  155  A    between atoms: _373  and  _375
REMARK  156  A    between atoms: _375  and  _376
REMARK  157  A    between atoms: _375  and  _378
REMARK  158  A    between atoms: _378  and  _379
REMARK  159  A    between atoms: _382  and  _384
REMARK  160  A    between atoms: _384  and  _385
REMARK  161  A    between atoms: _384  and  _387
REMARK  162  A    between atoms: _390  and  _392
REMARK  163  A    between atoms: _392  and  _393
REMARK  164  A    between atoms: _392  and  _395
REMARK  165  A    between atoms: _395  and  _396
REMARK  166  A    between atoms: _396  and  _397
REMARK  167  A    between atoms: _397  and  _398
REMARK  168  A    between atoms: _398  and  _399
REMARK  169  A    between atoms: _403  and  _405
REMARK  170  A    between atoms: _405  and  _406
REMARK  171  A    between atoms: _405  and  _408
REMARK  172  A    between atoms: _408  and  _409
REMARK  173  A    between atoms: _409  and  _410
REMARK  174  A    between atoms: _412  and  _414
REMARK  175  A    between atoms: _414  and  _415
REMARK  176  A    between atoms: _414  and  _417
REMARK  177  A    between atoms: _417  and  _418
REMARK  178  A    between atoms: _421  and  _423
REMARK  179  A    between atoms: _423  and  _424
REMARK  180  A    between atoms: _426  and  _428
REMARK  181  A    between atoms: _428  and  _429
REMARK  182  A    between atoms: _431  and  _433
REMARK  183  A    between atoms: _433  and  _434
REMARK  184  A    between atoms: _433  and  _436
REMARK  185  A    between atoms: _436  and  _437
REMARK  186  A    between atoms: _440  and  _442
REMARK  187  A    between atoms: _442  and  _443
REMARK  188  A    between atoms: _445  and  _447
REMARK  189  A    between atoms: _447  and  _448
REMARK  190  A    between atoms: _450  and  _452
REMARK  191  A    between atoms: _452  and  _453
REMARK  192  A    between atoms: _452  and  _455
REMARK  193  A    between atoms: _455  and  _456
REMARK  194  A    between atoms: _462  and  _464
REMARK  195  A    between atoms: _464  and  _465
REMARK  196  A    between atoms: _464  and  _467
REMARK  197  A    between atoms: _467  and  _468
REMARK  198  A    between atoms: _471  and  _473
REMARK  199  A    between atoms: _473  and  _474
REMARK  200  A    between atoms: _473  and  _476
REMARK  201  A    between atoms: _479  and  _481
REMARK  202  A    between atoms: _481  and  _482
REMARK  203  A    between atoms: _481  and  _484
REMARK  204  A    between atoms: _484  and  _485
REMARK  205  A    between atoms: _489  and  _490
REMARK  206  A    between atoms: _495  and  _497
REMARK  207  A    between atoms: _497  and  _498
REMARK  208  A    between atoms: _497  and  _500
REMARK  209  A    between atoms: _500  and  _501
REMARK  210  A    between atoms: _505  and  _506
REMARK  211  A    between atoms: _511  and  _513
REMARK  212  A    between atoms: _513  and  _514
REMARK  213  A    between atoms: _513  and  _516
REMARK  214  A    between atoms: _519  and  _521
REMARK  215  A    between atoms: _521  and  _522
REMARK  216  A    between atoms: _521  and  _524
REMARK  217  A    between atoms: _524  and  _525
REMARK  218  A    between atoms: _530  and  _532
REMARK  219  A    between atoms: _532  and  _533
REMARK  220  A    between atoms: _532  and  _535
REMARK  221  A    between atoms: _535  and  _536
REMARK  222  A    between atoms: _539  and  _541
REMARK  223  A    between atoms: _541  and  _542
REMARK  224  A    between atoms: _541  and  _544
REMARK  225  A    between atoms: _544  and  _545
REMARK  226  A    between atoms: _548  and  _550
REMARK  227  A    between atoms: _550  and  _551
REMARK  228  A    between atoms: _553  and  _555
REMARK  229  A    between atoms: _555  and  _556
REMARK  230  A    between atoms: _555  and  _558
REMARK  231  A    between atoms: _558  and  _559
REMARK  232  A    between atoms: _559  and  _560
REMARK  233  A    between atoms: _560  and  _561
REMARK                            x       y       z     vdW  Elec       q    Type
REMARK                         _______ _______ _______ _____ _____    ______ ____
ROOT
ATOM      1  O   HOH     1      22.686  16.656  10.342  0.00  0.00    +0.000 OA
ENDROOT
TORSDOF 0
REMARK  Name = ../refined-set-2016/1ec1/1ec1_pocket.pdb
REMARK  233 active torsions:
REMARK  status: ('A' for Active; 'I' for Inactive)
REMARK    1  A    between atoms: _1  and  _3
REMARK    2  A    between atoms: _3  and  _4
REMARK    3  A    between atoms: _3  and  _6
REMARK    4  A    between atoms: _6  and  _7
REMARK    5  A    between atoms: _7  and  _8
REMARK    6  A    between atoms: _8  and  _9
REMARK    7  A    between atoms: _18  and  _20
REMARK    8  A    between atoms: _20  and  _21
REMARK    9  A    between atoms: _20  and  _23
REMARK   10  A    between atoms: _23  and  _24
REMARK   11  A    between atoms: _27  and  _29
REMARK   12  A    between atoms: _29  and  _30
REMARK   13  A    between atoms: _29  and  _32
REMARK   14  A    between atoms: _32  and  _33
REMARK   15  A    between atoms: _36  and  _38
REMARK   16  A    between atoms: _38  and  _39
REMARK   17  A    between atoms: _38  and  _41
REMARK   18  A    between atoms: _41  and  _42
REMARK   19  A    between atoms: _45  and  _47
REMARK   20  A    between atoms: _47  and  _48
REMARK   21  A    between atoms: _47  and  _50
REMARK   22  A    between atoms: _50  and  _51
REMARK   23  A    between atoms: _54  and  _56
REMARK   24  A    between atoms: _56  and  _57
REMARK   25  A    between atoms: _56  and  _59
REMARK   26  A    between atoms: _59  and  _60
REMARK   27  A    between atoms: _63  and  _65
REMARK   28  A    between atoms: _65  and  _66
REMARK   29  A    between atoms: _68  and  _70
REMARK   30  A    between atoms: _70  and  _71
REMARK   31  A    between atoms: _74  and  _76
REMARK   32  A    between atoms: _76  and  _77
REMARK   33  A    between atoms: _76  and  _79
REMARK   34  A    between atoms: _79  and  _80
REMARK   35  A    between atoms: _83  and  _85
REMARK   36  A    between atoms: _85  and  _86
REMARK   37  A    between atoms: _85  and  _88
REMARK   38  A    between atoms: _88  and  _89
REMARK   39  A    between atoms: _92  and  _94
REMARK   40  A    between atoms: _94  and  _95
REMARK   41  A    between atoms: _94  and  _97
REMARK   42  A    between atoms: _97  and  _98
REMARK   43  A    between atoms: _101  and  _103
REMARK   44  A    between atoms: _103  and  _104
REMARK   45  A    between atoms: _103  and  _106
REMARK   46  A    between atoms: _109  and  _111
REMARK   47  A    between atoms: _111  and  _112
REMARK   48  A    between atoms: _111  and  _114
REMARK   49  A    between atoms: _114  and  _115
REMARK   50  A    between atoms: _115  and  _116
REMARK   51  A    between atoms: _116  and  _117
REMARK   52  A    between atoms: _117  and  _118
REMARK   53  A    between atoms: _122  and  _124
REMARK   54  A    between atoms: _124  and  _125
REMARK   55  A    between atoms: _124  and  _127
REMARK   56  A    between atoms: _127  and  _128
REMARK   57  A    between atoms: _128  and  _129
REMARK   58  A    between atoms: _131  and  _133
REMARK   59  A    between atoms: _133  and  _134
REMARK   60  A    between atoms: _133  and  _136
REMARK   61  A    between atoms: _136  and  _137
REMARK   62  A    between atoms: _140  and  _142
REMARK   63  A    between atoms: _142  and  _143
REMARK   64  A    between atoms: _145  and  _147
REMARK   65  A    between atoms: _147  and  _148
REMARK   66  A    between atoms: _150  and  _152
REMARK   67  A    between atoms: _152  and  _153
REMARK   68  A    between atoms: _152  and  _155
REMARK   69  A    between atoms: _155  and  _156
REMARK   70  A    between atoms: _159  and  _161
REMARK   71  A    between atoms: _161  and  _162
REMARK   72  A    between atoms: _164  and  _166
REMARK   73  A    between atoms: _166  and  _167
REMARK   74  A    between atoms: _169  and  _171
REMARK   75  A    between atoms: _171  and  _172
REMARK   76  A    between atoms: _171  and  _174
REMARK   77  A    between atoms: _174  and  _175
REMARK   78  A    between atoms: _181  and  _183
REMARK   79  A    between atoms: _183  and  _184
REMARK   80  A    between atoms: _183  and  _186
REMARK   81  A    between atoms: _186  and  _187
REMARK   82  A    between atoms: _190  and  _192
REMARK   83  A    between atoms: _192  and  _193
REMARK   84  A    between atoms: _192  and  _195
REMARK   85  A    between atoms: _198  and  _200
REMARK   86  A    between atoms: _200  and  _201
REMARK   87  A    between atoms: _200  and  _203
REMARK   88  A    between atoms: _203  and  _204
REMARK   89  A    between atoms: _207  and  _209
REMARK   90  A    between atoms: _209  and  _210
REMARK   91  A    between atoms: _209  and  _212
REMARK   92  A    between atoms: _212  and  _213
REMARK   93  A    between atoms: _217  and  _218
REMARK   94  A    between atoms: _223  and  _225
REMARK   95  A    between atoms: _225  and  _226
REMARK   96  A    between atoms: _225  and  _228
REMARK   97  A    between atoms: _231  and  _233
REMARK   98  A    between atoms: _233  and  _234
REMARK   99  A    between atoms: _233  and  _236
REMARK  100  A    between atoms: _236  and  _237
REMARK  101  A    between atoms: _242  and  _244
REMARK  102  A    between atoms: _244  and  _245
REMARK  103  A    between atoms: _244  and  _247
REMARK  104  A    between atoms: _247  and  _248
REMARK  105  A    between atoms: _251  and  _253
REMARK  106  A    between atoms: _253  and  _254
REMARK  107  A    between atoms: _253  and  _256
REMARK  108  A    between atoms: _256  and  _257
REMARK  109  A    between atoms: _260  and  _262
REMARK  110  A    between atoms: _262  and  _263
REMARK  111  A    between atoms: _265  and  _267
REMARK  112  A    between atoms: _267  and  _268
REMARK  113  A    between atoms: _267  and  _270
REMARK  114  A    between atoms: _270  and  _271
REMARK  115  A    between atoms: _271  and  _272
REMARK  116  A    between atoms: _272  and  _273
REMARK  117  A    between atoms: _282  and  _284
REMARK  118  A    between atoms: _284  and  _285
REMARK  119  A    between atoms: _284  and  _287
REMARK  120  A    between atoms: _287  and  _288
REMARK  121  A    between atoms: _288  and  _289
REMARK  122  A    between atoms: _289  and  _290
REMARK  123  A    between atoms: _299  and  _301
REMARK  124  A    between atoms: _301  and  _302
REMARK  125  A    between atoms: _301  and  _304
REMARK  126  A    between atoms: _304  and  _305
REMARK  127  A    between atoms: _308  and  _310
REMARK  128  A    between atoms: _310  and  _311
REMARK  129  A    between atoms: _310  and  _313
REMARK  130  A    between atoms: _313  and  _314
REMARK  131  A    between atoms: _317  and  _319
REMARK  132  A    between atoms: _319  and  _320
REMARK  133  A    between atoms: _319  and  _322
REMARK  134  A    between atoms: _322  and  _323
REMARK  135  A    between atoms: _326  and  _328
REMARK  136  A    between atoms: _328  and  _329
REMARK  137  A    between atoms: _328  and  _331
REMARK  138  A    between atoms: _331  and  _332
REMARK  139  A    between atoms: _335  and  _337
REMARK  140  A    between atoms: _337  and  _338
REMARK  141  A    between atoms: _337  and  _340
REMARK  142  A    between atoms: _340  and  _341
REMARK  143  A    between atoms: _344  and  _346
REMARK  144  A    between atoms: _346  and  _347
REMARK  145  A    between atoms: _349  and  _351
REMARK  146  A    between atoms: _351  and  _352
REMARK  147  A    between atoms: _355  and  _357
REMARK  148  A    between atoms: _357  and  _358
REMARK  149  A    between atoms: _357  and  _360
REMARK  150  A    between atoms: _360  and  _361
REMARK  151  A    between atoms: _364  and  _366
REMARK  152  A    between atoms: _366  and  _367
REMARK  153  A    between atoms: _366  and  _369
REMARK  154  A    between atoms: _369  and  _370
REMARK  155  A    between atoms: _373  and  _375
REMARK  156  A    between atoms: _375  and  _376
REMARK  157  A    between atoms: _375  and  _378
REMARK  158  A    between atoms: _378  and  _379
REMARK  159  A    between atoms: _382  and  _384
REMARK  160  A    between atoms: _384  and  _385
REMARK  161  A    between atoms: _384  and  _387
REMARK  162  A    between atoms: _390  and  _392
REMARK  163  A    between atoms: _392  and  _393
REMARK  164  A    between atoms: _392  and  _395
REMARK  165  A    between atoms: _395  and  _396
REMARK  166  A    between atoms: _396  and  _397
REMARK  167  A    between atoms: _397  and  _398
REMARK  168  A    between atoms: _398  and  _399
REMARK  169  A    between atoms: _403  and  _405
REMARK  170  A    between atoms: _405  and  _406
REMARK  171  A    between atoms: _405  and  _408
REMARK  172  A    between atoms: _408  and  _409
REMARK  173  A    between atoms: _409  and  _410
REMARK  174  A    between atoms: _412  and  _414
REMARK  175  A    between atoms: _414  and  _415
REMARK  176  A    between atoms: _414  and  _417
REMARK  177  A    between atoms: _417  and  _418
REMARK  178  A    between atoms: _421  and  _423
REMARK  179  A    between atoms: _423  and  _424
REMARK  180  A    between atoms: _426  and  _428
REMARK  181  A    between atoms: _428  and  _429
REMARK  182  A    between atoms: _431  and  _433
REMARK  183  A    between atoms: _433  and  _434
REMARK  184  A    between atoms: _433  and  _436
REMARK  185  A    between atoms: _436  and  _437
REMARK  186  A    between atoms: _440  and  _442
REMARK  187  A    between atoms: _442  and  _443
REMARK  188  A    between atoms: _445  and  _447
REMARK  189  A    between atoms: _447  and  _448
REMARK  190  A    between atoms: _450  and  _452
REMARK  191  A    between atoms: _452  and  _453
REMARK  192  A    between atoms: _452  and  _455
REMARK  193  A    between atoms: _455  and  _456
REMARK  194  A    between atoms: _462  and  _464
REMARK  195  A    between atoms: _464  and  _465
REMARK  196  A    between atoms: _464  and  _467
REMARK  197  A    between atoms: _467  and  _468
REMARK  198  A    between atoms: _471  and  _473
REMARK  199  A    between atoms: _473  and  _474
REMARK  200  A    between atoms: _473  and  _476
REMARK  201  A    between atoms: _479  and  _481
REMARK  202  A    between atoms: _481  and  _482
REMARK  203  A    between atoms: _481  and  _484
REMARK  204  A    between atoms: _484  and  _485
REMARK  205  A    between atoms: _489  and  _490
REMARK  206  A    between atoms: _495  and  _497
REMARK  207  A    between atoms: _497  and  _498
REMARK  208  A    between atoms: _497  and  _500
REMARK  209  A    between atoms: _500  and  _501
REMARK  210  A    between atoms: _505  and  _506
REMARK  211  A    between atoms: _511  and  _513
REMARK  212  A    between atoms: _513  and  _514
REMARK  213  A    between atoms: _513  and  _516
REMARK  214  A    between atoms: _519  and  _521
REMARK  215  A    between atoms: _521  and  _522
REMARK  216  A    between atoms: _521  and  _524
REMARK  217  A    between atoms: _524  and  _525
REMARK  218  A    between atoms: _530  and  _532
REMARK  219  A    between atoms: _532  and  _533
REMARK  220  A    between atoms: _532  and  _535
REMARK  221  A    between atoms: _535  and  _536
REMARK  222  A    between atoms: _539  and  _541
REMARK  223  A    between atoms: _541  and  _542
REMARK  224  A    between atoms: _541  and  _544
REMARK  225  A    between atoms: _544  and  _545
REMARK  226  A    between atoms: _548  and  _550
REMARK  227  A    between atoms: _550  and  _551
REMARK  228  A    between atoms: _553  and  _555
REMARK  229  A    between atoms: _555  and  _556
REMARK  230  A    between atoms: _555  and  _558
REMARK  231  A    between atoms: _558  and  _559
REMARK  232  A    between atoms: _559  and  _560
REMARK  233  A    between atoms: _560  and  _561
REMARK                            x       y       z     vdW  Elec       q    Type
REMARK                         _______ _______ _______ _____ _____    ______ ____
ROOT
ATOM      1  O   HOH     1      19.823  14.141  12.395  0.00  0.00    +0.000 OA
ENDROOT
TORSDOF 0
REMARK  Name = ../refined-set-2016/1ec1/1ec1_pocket.pdb
REMARK  233 active torsions:
REMARK  status: ('A' for Active; 'I' for Inactive)
REMARK    1  A    between atoms: _1  and  _3
REMARK    2  A    between atoms: _3  and  _4
REMARK    3  A    between atoms: _3  and  _6
REMARK    4  A    between atoms: _6  and  _7
REMARK    5  A    between atoms: _7  and  _8
REMARK    6  A    between atoms: _8  and  _9
REMARK    7  A    between atoms: _18  and  _20
REMARK    8  A    between atoms: _20  and  _21
REMARK    9  A    between atoms: _20  and  _23
REMARK   10  A    between atoms: _23  and  _24
REMARK   11  A    between atoms: _27  and  _29
REMARK   12  A    between atoms: _29  and  _30
REMARK   13  A    between atoms: _29  and  _32
REMARK   14  A    between atoms: _32  and  _33
REMARK   15  A    between atoms: _36  and  _38
REMARK   16  A    between atoms: _38  and  _39
REMARK   17  A    between atoms: _38  and  _41
REMARK   18  A    between atoms: _41  and  _42
REMARK   19  A    between atoms: _45  and  _47
REMARK   20  A    between atoms: _47  and  _48
REMARK   21  A    between atoms: _47  and  _50
REMARK   22  A    between atoms: _50  and  _51
REMARK   23  A    between atoms: _54  and  _56
REMARK   24  A    between atoms: _56  and  _57
REMARK   25  A    between atoms: _56  and  _59
REMARK   26  A    between atoms: _59  and  _60
REMARK   27  A    between atoms: _63  and  _65
REMARK   28  A    between atoms: _65  and  _66
REMARK   29  A    between atoms: _68  and  _70
REMARK   30  A    between atoms: _70  and  _71
REMARK   31  A    between atoms: _74  and  _76
REMARK   32  A    between atoms: _76  and  _77
REMARK   33  A    between atoms: _76  and  _79
REMARK   34  A    between atoms: _79  and  _80
REMARK   35  A    between atoms: _83  and  _85
REMARK   36  A    between atoms: _85  and  _86
REMARK   37  A    between atoms: _85  and  _88
REMARK   38  A    between atoms: _88  and  _89
REMARK   39  A    between atoms: _92  and  _94
REMARK   40  A    between atoms: _94  and  _95
REMARK   41  A    between atoms: _94  and  _97
REMARK   42  A    between atoms: _97  and  _98
REMARK   43  A    between atoms: _101  and  _103
REMARK   44  A    between atoms: _103  and  _104
REMARK   45  A    between atoms: _103  and  _106
REMARK   46  A    between atoms: _109  and  _111
REMARK   47  A    between atoms: _111  and  _112
REMARK   48  A    between atoms: _111  and  _114
REMARK   49  A    between atoms: _114  and  _115
REMARK   50  A    between atoms: _115  and  _116
REMARK   51  A    between atoms: _116  and  _117
REMARK   52  A    between atoms: _117  and  _118
REMARK   53  A    between atoms: _122  and  _124
REMARK   54  A    between atoms: _124  and  _125
REMARK   55  A    between atoms: _124  and  _127
REMARK   56  A    between atoms: _127  and  _128
REMARK   57  A    between atoms: _128  and  _129
REMARK   58  A    between atoms: _131  and  _133
REMARK   59  A    between atoms: _133  and  _134
REMARK   60  A    between atoms: _133  and  _136
REMARK   61  A    between atoms: _136  and  _137
REMARK   62  A    between atoms: _140  and  _142
REMARK   63  A    between atoms: _142  and  _143
REMARK   64  A    between atoms: _145  and  _147
REMARK   65  A    between atoms: _147  and  _148
REMARK   66  A    between atoms: _150  and  _152
REMARK   67  A    between atoms: _152  and  _153
REMARK   68  A    between atoms: _152  and  _155
REMARK   69  A    between atoms: _155  and  _156
REMARK   70  A    between atoms: _159  and  _161
REMARK   71  A    between atoms: _161  and  _162
REMARK   72  A    between atoms: _164  and  _166
REMARK   73  A    between atoms: _166  and  _167
REMARK   74  A    between atoms: _169  and  _171
REMARK   75  A    between atoms: _171  and  _172
REMARK   76  A    between atoms: _171  and  _174
REMARK   77  A    between atoms: _174  and  _175
REMARK   78  A    between atoms: _181  and  _183
REMARK   79  A    between atoms: _183  and  _184
REMARK   80  A    between atoms: _183  and  _186
REMARK   81  A    between atoms: _186  and  _187
REMARK   82  A    between atoms: _190  and  _192
REMARK   83  A    between atoms: _192  and  _193
REMARK   84  A    between atoms: _192  and  _195
REMARK   85  A    between atoms: _198  and  _200
REMARK   86  A    between atoms: _200  and  _201
REMARK   87  A    between atoms: _200  and  _203
REMARK   88  A    between atoms: _203  and  _204
REMARK   89  A    between atoms: _207  and  _209
REMARK   90  A    between atoms: _209  and  _210
REMARK   91  A    between atoms: _209  and  _212
REMARK   92  A    between atoms: _212  and  _213
REMARK   93  A    between atoms: _217  and  _218
REMARK   94  A    between atoms: _223  and  _225
REMARK   95  A    between atoms: _225  and  _226
REMARK   96  A    between atoms: _225  and  _228
REMARK   97  A    between atoms: _231  and  _233
REMARK   98  A    between atoms: _233  and  _234
REMARK   99  A    between atoms: _233  and  _236
REMARK  100  A    between atoms: _236  and  _237
REMARK  101  A    between atoms: _242  and  _244
REMARK  102  A    between atoms: _244  and  _245
REMARK  103  A    between atoms: _244  and  _247
REMARK  104  A    between atoms: _247  and  _248
REMARK  105  A    between atoms: _251  and  _253
REMARK  106  A    between atoms: _253  and  _254
REMARK  107  A    between atoms: _253  and  _256
REMARK  108  A    between atoms: _256  and  _257
REMARK  109  A    between atoms: _260  and  _262
REMARK  110  A    between atoms: _262  and  _263
REMARK  111  A    between atoms: _265  and  _267
REMARK  112  A    between atoms: _267  and  _268
REMARK  113  A    between atoms: _267  and  _270
REMARK  114  A    between atoms: _270  and  _271
REMARK  115  A    between atoms: _271  and  _272
REMARK  116  A    between atoms: _272  and  _273
REMARK  117  A    between atoms: _282  and  _284
REMARK  118  A    between atoms: _284  and  _285
REMARK  119  A    between atoms: _284  and  _287
REMARK  120  A    between atoms: _287  and  _288
REMARK  121  A    between atoms: _288  and  _289
REMARK  122  A    between atoms: _289  and  _290
REMARK  123  A    between atoms: _299  and  _301
REMARK  124  A    between atoms: _301  and  _302
REMARK  125  A    between atoms: _301  and  _304
REMARK  126  A    between atoms: _304  and  _305
REMARK  127  A    between atoms: _308  and  _310
REMARK  128  A    between atoms: _310  and  _311
REMARK  129  A    between atoms: _310  and  _313
REMARK  130  A    between atoms: _313  and  _314
REMARK  131  A    between atoms: _317  and  _319
REMARK  132  A    between atoms: _319  and  _320
REMARK  133  A    between atoms: _319  and  _322
REMARK  134  A    between atoms: _322  and  _323
REMARK  135  A    between atoms: _326  and  _328
REMARK  136  A    between atoms: _328  and  _329
REMARK  137  A    between atoms: _328  and  _331
REMARK  138  A    between atoms: _331  and  _332
REMARK  139  A    between atoms: _335  and  _337
REMARK  140  A    between atoms: _337  and  _338
REMARK  141  A    between atoms: _337  and  _340
REMARK  142  A    between atoms: _340  and  _341
REMARK  143  A    between atoms: _344  and  _346
REMARK  144  A    between atoms: _346  and  _347
REMARK  145  A    between atoms: _349  and  _351
REMARK  146  A    between atoms: _351  and  _352
REMARK  147  A    between atoms: _355  and  _357
REMARK  148  A    between atoms: _357  and  _358
REMARK  149  A    between atoms: _357  and  _360
REMARK  150  A    between atoms: _360  and  _361
REMARK  151  A    between atoms: _364  and  _366
REMARK  152  A    between atoms: _366  and  _367
REMARK  153  A    between atoms: _366  and  _369
REMARK  154  A    between atoms: _369  and  _370
REMARK  155  A    between atoms: _373  and  _375
REMARK  156  A    between atoms: _375  and  _376
REMARK  157  A    between atoms: _375  and  _378
REMARK  158  A    between atoms: _378  and  _379
REMARK  159  A    between atoms: _382  and  _384
REMARK  160  A    between atoms: _384  and  _385
REMARK  161  A    between atoms: _384  and  _387
REMARK  162  A    between atoms: _390  and  _392
REMARK  163  A    between atoms: _392  and  _393
REMARK  164  A    between atoms: _392  and  _395
REMARK  165  A    between atoms: _395  and  _396
REMARK  166  A    between atoms: _396  and  _397
REMARK  167  A    between atoms: _397  and  _398
REMARK  168  A    between atoms: _398  and  _399
REMARK  169  A    between atoms: _403  and  _405
REMARK  170  A    between atoms: _405  and  _406
REMARK  171  A    between atoms: _405  and  _408
REMARK  172  A    between atoms: _408  and  _409
REMARK  173  A    between atoms: _409  and  _410
REMARK  174  A    between atoms: _412  and  _414
REMARK  175  A    between atoms: _414  and  _415
REMARK  176  A    between atoms: _414  and  _417
REMARK  177  A    between atoms: _417  and  _418
REMARK  178  A    between atoms: _421  and  _423
REMARK  179  A    between atoms: _423  and  _424
REMARK  180  A    between atoms: _426  and  _428
REMARK  181  A    between atoms: _428  and  _429
REMARK  182  A    between atoms: _431  and  _433
REMARK  183  A    between atoms: _433  and  _434
REMARK  184  A    between atoms: _433  and  _436
REMARK  185  A    between atoms: _436  and  _437
REMARK  186  A    between atoms: _440  and  _442
REMARK  187  A    between atoms: _442  and  _443
REMARK  188  A    between atoms: _445  and  _447
REMARK  189  A    between atoms: _447  and  _448
REMARK  190  A    between atoms: _450  and  _452
REMARK  191  A    between atoms: _452  and  _453
REMARK  192  A    between atoms: _452  and  _455
REMARK  193  A    between atoms: _455  and  _456
REMARK  194  A    between atoms: _462  and  _464
REMARK  195  A    between atoms: _464  and  _465
REMARK  196  A    between atoms: _464  and  _467
REMARK  197  A    between atoms: _467  and  _468
REMARK  198  A    between atoms: _471  and  _473
REMARK  199  A    between atoms: _473  and  _474
REMARK  200  A    between atoms: _473  and  _476
REMARK  201  A    between atoms: _479  and  _481
REMARK  202  A    between atoms: _481  and  _482
REMARK  203  A    between atoms: _481  and  _484
REMARK  204  A    between atoms: _484  and  _485
REMARK  205  A    between atoms: _489  and  _490
REMARK  206  A    between atoms: _495  and  _497
REMARK  207  A    between atoms: _497  and  _498
REMARK  208  A    between atoms: _497  and  _500
REMARK  209  A    between atoms: _500  and  _501
REMARK  210  A    between atoms: _505  and  _506
REMARK  211  A    between atoms: _511  and  _513
REMARK  212  A    between atoms: _513  and  _514
REMARK  213  A    between atoms: _513  and  _516
REMARK  214  A    between atoms: _519  and  _521
REMARK  215  A    between atoms: _521  and  _522
REMARK  216  A    between atoms: _521  and  _524
REMARK  217  A    between atoms: _524  and  _525
REMARK  218  A    between atoms: _530  and  _532
REMARK  219  A    between atoms: _532  and  _533
REMARK  220  A    between atoms: _532  and  _535
REMARK  221  A    between atoms: _535  and  _536
REMARK  222  A    between atoms: _539  and  _541
REMARK  223  A    between atoms: _541  and  _542
REMARK  224  A    between atoms: _541  and  _544
REMARK  225  A    between atoms: _544  and  _545
REMARK  226  A    between atoms: _548  and  _550
REMARK  227  A    between atoms: _550  and  _551
REMARK  228  A    between atoms: _553  and  _555
REMARK  229  A    between atoms: _555  and  _556
REMARK  230  A    between atoms: _555  and  _558
REMARK  231  A    between atoms: _558  and  _559
REMARK  232  A    between atoms: _559  and  _560
REMARK  233  A    between atoms: _560  and  _561
REMARK                            x       y       z     vdW  Elec       q    Type
REMARK                         _______ _______ _______ _____ _____    ______ ____
ROOT
ATOM      1  O   HOH     1       8.468  35.635   5.567  0.00  0.00    +0.000 OA
ENDROOT
TORSDOF 0
REMARK  Name = ../refined-set-2016/1ec1/1ec1_pocket.pdb
REMARK  233 active torsions:
REMARK  status: ('A' for Active; 'I' for Inactive)
REMARK    1  A    between atoms: _1  and  _3
REMARK    2  A    between atoms: _3  and  _4
REMARK    3  A    between atoms: _3  and  _6
REMARK    4  A    between atoms: _6  and  _7
REMARK    5  A    between atoms: _7  and  _8
REMARK    6  A    between atoms: _8  and  _9
REMARK    7  A    between atoms: _18  and  _20
REMARK    8  A    between atoms: _20  and  _21
REMARK    9  A    between atoms: _20  and  _23
REMARK   10  A    between atoms: _23  and  _24
REMARK   11  A    between atoms: _27  and  _29
REMARK   12  A    between atoms: _29  and  _30
REMARK   13  A    between atoms: _29  and  _32
REMARK   14  A    between atoms: _32  and  _33
REMARK   15  A    between atoms: _36  and  _38
REMARK   16  A    between atoms: _38  and  _39
REMARK   17  A    between atoms: _38  and  _41
REMARK   18  A    between atoms: _41  and  _42
REMARK   19  A    between atoms: _45  and  _47
REMARK   20  A    between atoms: _47  and  _48
REMARK   21  A    between atoms: _47  and  _50
REMARK   22  A    between atoms: _50  and  _51
REMARK   23  A    between atoms: _54  and  _56
REMARK   24  A    between atoms: _56  and  _57
REMARK   25  A    between atoms: _56  and  _59
REMARK   26  A    between atoms: _59  and  _60
REMARK   27  A    between atoms: _63  and  _65
REMARK   28  A    between atoms: _65  and  _66
REMARK   29  A    between atoms: _68  and  _70
REMARK   30  A    between atoms: _70  and  _71
REMARK   31  A    between atoms: _74  and  _76
REMARK   32  A    between atoms: _76  and  _77
REMARK   33  A    between atoms: _76  and  _79
REMARK   34  A    between atoms: _79  and  _80
REMARK   35  A    between atoms: _83  and  _85
REMARK   36  A    between atoms: _85  and  _86
REMARK   37  A    between atoms: _85  and  _88
REMARK   38  A    between atoms: _88  and  _89
REMARK   39  A    between atoms: _92  and  _94
REMARK   40  A    between atoms: _94  and  _95
REMARK   41  A    between atoms: _94  and  _97
REMARK   42  A    between atoms: _97  and  _98
REMARK   43  A    between atoms: _101  and  _103
REMARK   44  A    between atoms: _103  and  _104
REMARK   45  A    between atoms: _103  and  _106
REMARK   46  A    between atoms: _109  and  _111
REMARK   47  A    between atoms: _111  and  _112
REMARK   48  A    between atoms: _111  and  _114
REMARK   49  A    between atoms: _114  and  _115
REMARK   50  A    between atoms: _115  and  _116
REMARK   51  A    between atoms: _116  and  _117
REMARK   52  A    between atoms: _117  and  _118
REMARK   53  A    between atoms: _122  and  _124
REMARK   54  A    between atoms: _124  and  _125
REMARK   55  A    between atoms: _124  and  _127
REMARK   56  A    between atoms: _127  and  _128
REMARK   57  A    between atoms: _128  and  _129
REMARK   58  A    between atoms: _131  and  _133
REMARK   59  A    between atoms: _133  and  _134
REMARK   60  A    between atoms: _133  and  _136
REMARK   61  A    between atoms: _136  and  _137
REMARK   62  A    between atoms: _140  and  _142
REMARK   63  A    between atoms: _142  and  _143
REMARK   64  A    between atoms: _145  and  _147
REMARK   65  A    between atoms: _147  and  _148
REMARK   66  A    between atoms: _150  and  _152
REMARK   67  A    between atoms: _152  and  _153
REMARK   68  A    between atoms: _152  and  _155
REMARK   69  A    between atoms: _155  and  _156
REMARK   70  A    between atoms: _159  and  _161
REMARK   71  A    between atoms: _161  and  _162
REMARK   72  A    between atoms: _164  and  _166
REMARK   73  A    between atoms: _166  and  _167
REMARK   74  A    between atoms: _169  and  _171
REMARK   75  A    between atoms: _171  and  _172
REMARK   76  A    between atoms: _171  and  _174
REMARK   77  A    between atoms: _174  and  _175
REMARK   78  A    between atoms: _181  and  _183
REMARK   79  A    between atoms: _183  and  _184
REMARK   80  A    between atoms: _183  and  _186
REMARK   81  A    between atoms: _186  and  _187
REMARK   82  A    between atoms: _190  and  _192
REMARK   83  A    between atoms: _192  and  _193
REMARK   84  A    between atoms: _192  and  _195
REMARK   85  A    between atoms: _198  and  _200
REMARK   86  A    between atoms: _200  and  _201
REMARK   87  A    between atoms: _200  and  _203
REMARK   88  A    between atoms: _203  and  _204
REMARK   89  A    between atoms: _207  and  _209
REMARK   90  A    between atoms: _209  and  _210
REMARK   91  A    between atoms: _209  and  _212
REMARK   92  A    between atoms: _212  and  _213
REMARK   93  A    between atoms: _217  and  _218
REMARK   94  A    between atoms: _223  and  _225
REMARK   95  A    between atoms: _225  and  _226
REMARK   96  A    between atoms: _225  and  _228
REMARK   97  A    between atoms: _231  and  _233
REMARK   98  A    between atoms: _233  and  _234
REMARK   99  A    between atoms: _233  and  _236
REMARK  100  A    between atoms: _236  and  _237
REMARK  101  A    between atoms: _242  and  _244
REMARK  102  A    between atoms: _244  and  _245
REMARK  103  A    between atoms: _244  and  _247
REMARK  104  A    between atoms: _247  and  _248
REMARK  105  A    between atoms: _251  and  _253
REMARK  106  A    between atoms: _253  and  _254
REMARK  107  A    between atoms: _253  and  _256
REMARK  108  A    between atoms: _256  and  _257
REMARK  109  A    between atoms: _260  and  _262
REMARK  110  A    between atoms: _262  and  _263
REMARK  111  A    between atoms: _265  and  _267
REMARK  112  A    between atoms: _267  and  _268
REMARK  113  A    between atoms: _267  and  _270
REMARK  114  A    between atoms: _270  and  _271
REMARK  115  A    between atoms: _271  and  _272
REMARK  116  A    between atoms: _272  and  _273
REMARK  117  A    between atoms: _282  and  _284
REMARK  118  A    between atoms: _284  and  _285
REMARK  119  A    between atoms: _284  and  _287
REMARK  120  A    between atoms: _287  and  _288
REMARK  121  A    between atoms: _288  and  _289
REMARK  122  A    between atoms: _289  and  _290
REMARK  123  A    between atoms: _299  and  _301
REMARK  124  A    between atoms: _301  and  _302
REMARK  125  A    between atoms: _301  and  _304
REMARK  126  A    between atoms: _304  and  _305
REMARK  127  A    between atoms: _308  and  _310
REMARK  128  A    between atoms: _310  and  _311
REMARK  129  A    between atoms: _310  and  _313
REMARK  130  A    between atoms: _313  and  _314
REMARK  131  A    between atoms: _317  and  _319
REMARK  132  A    between atoms: _319  and  _320
REMARK  133  A    between atoms: _319  and  _322
REMARK  134  A    between atoms: _322  and  _323
REMARK  135  A    between atoms: _326  and  _328
REMARK  136  A    between atoms: _328  and  _329
REMARK  137  A    between atoms: _328  and  _331
REMARK  138  A    between atoms: _331  and  _332
REMARK  139  A    between atoms: _335  and  _337
REMARK  140  A    between atoms: _337  and  _338
REMARK  141  A    between atoms: _337  and  _340
REMARK  142  A    between atoms: _340  and  _341
REMARK  143  A    between atoms: _344  and  _346
REMARK  144  A    between atoms: _346  and  _347
REMARK  145  A    between atoms: _349  and  _351
REMARK  146  A    between atoms: _351  and  _352
REMARK  147  A    between atoms: _355  and  _357
REMARK  148  A    between atoms: _357  and  _358
REMARK  149  A    between atoms: _357  and  _360
REMARK  150  A    between atoms: _360  and  _361
REMARK  151  A    between atoms: _364  and  _366
REMARK  152  A    between atoms: _366  and  _367
REMARK  153  A    between atoms: _366  and  _369
REMARK  154  A    between atoms: _369  and  _370
REMARK  155  A    between atoms: _373  and  _375
REMARK  156  A    between atoms: _375  and  _376
REMARK  157  A    between atoms: _375  and  _378
REMARK  158  A    between atoms: _378  and  _379
REMARK  159  A    between atoms: _382  and  _384
REMARK  160  A    between atoms: _384  and  _385
REMARK  161  A    between atoms: _384  and  _387
REMARK  162  A    between atoms: _390  and  _392
REMARK  163  A    between atoms: _392  and  _393
REMARK  164  A    between atoms: _392  and  _395
REMARK  165  A    between atoms: _395  and  _396
REMARK  166  A    between atoms: _396  and  _397
REMARK  167  A    between atoms: _397  and  _398
REMARK  168  A    between atoms: _398  and  _399
REMARK  169  A    between atoms: _403  and  _405
REMARK  170  A    between atoms: _405  and  _406
REMARK  171  A    between atoms: _405  and  _408
REMARK  172  A    between atoms: _408  and  _409
REMARK  173  A    between atoms: _409  and  _410
REMARK  174  A    between atoms: _412  and  _414
REMARK  175  A    between atoms: _414  and  _415
REMARK  176  A    between atoms: _414  and  _417
REMARK  177  A    between atoms: _417  and  _418
REMARK  178  A    between atoms: _421  and  _423
REMARK  179  A    between atoms: _423  and  _424
REMARK  180  A    between atoms: _426  and  _428
REMARK  181  A    between atoms: _428  and  _429
REMARK  182  A    between atoms: _431  and  _433
REMARK  183  A    between atoms: _433  and  _434
REMARK  184  A    between atoms: _433  and  _436
REMARK  185  A    between atoms: _436  and  _437
REMARK  186  A    between atoms: _440  and  _442
REMARK  187  A    between atoms: _442  and  _443
REMARK  188  A    between atoms: _445  and  _447
REMARK  189  A    between atoms: _447  and  _448
REMARK  190  A    between atoms: _450  and  _452
REMARK  191  A    between atoms: _452  and  _453
REMARK  192  A    between atoms: _452  and  _455
REMARK  193  A    between atoms: _455  and  _456
REMARK  194  A    between atoms: _462  and  _464
REMARK  195  A    between atoms: _464  and  _465
REMARK  196  A    between atoms: _464  and  _467
REMARK  197  A    between atoms: _467  and  _468
REMARK  198  A    between atoms: _471  and  _473
REMARK  199  A    between atoms: _473  and  _474
REMARK  200  A    between atoms: _473  and  _476
REMARK  201  A    between atoms: _479  and  _481
REMARK  202  A    between atoms: _481  and  _482
REMARK  203  A    between atoms: _481  and  _484
REMARK  204  A    between atoms: _484  and  _485
REMARK  205  A    between atoms: _489  and  _490
REMARK  206  A    between atoms: _495  and  _497
REMARK  207  A    between atoms: _497  and  _498
REMARK  208  A    between atoms: _497  and  _500
REMARK  209  A    between atoms: _500  and  _501
REMARK  210  A    between atoms: _505  and  _506
REMARK  211  A    between atoms: _511  and  _513
REMARK  212  A    between atoms: _513  and  _514
REMARK  213  A    between atoms: _513  and  _516
REMARK  214  A    between atoms: _519  and  _521
REMARK  215  A    between atoms: _521  and  _522
REMARK  216  A    between atoms: _521  and  _524
REMARK  217  A    between atoms: _524  and  _525
REMARK  218  A    between atoms: _530  and  _532
REMARK  219  A    between atoms: _532  and  _533
REMARK  220  A    between atoms: _532  and  _535
REMARK  221  A    between atoms: _535  and  _536
REMARK  222  A    between atoms: _539  and  _541
REMARK  223  A    between atoms: _541  and  _542
REMARK  224  A    between atoms: _541  and  _544
REMARK  225  A    between atoms: _544  and  _545
REMARK  226  A    between atoms: _548  and  _550
REMARK  227  A    between atoms: _550  and  _551
REMARK  228  A    between atoms: _553  and  _555
REMARK  229  A    between atoms: _555  and  _556
REMARK  230  A    between atoms: _555  and  _558
REMARK  231  A    between atoms: _558  and  _559
REMARK  232  A    between atoms: _559  and  _560
REMARK  233  A    between atoms: _560  and  _561
REMARK                            x       y       z     vdW  Elec       q    Type
REMARK                         _______ _______ _______ _____ _____    ______ ____
ROOT
ATOM      1  O   HOH     1       4.749  32.649   1.893  0.00  0.00    +0.000 OA
ENDROOT
TORSDOF 0
REMARK  Name = ../refined-set-2016/1ec1/1ec1_pocket.pdb
REMARK  233 active torsions:
REMARK  status: ('A' for Active; 'I' for Inactive)
REMARK    1  A    between atoms: _1  and  _3
REMARK    2  A    between atoms: _3  and  _4
REMARK    3  A    between atoms: _3  and  _6
REMARK    4  A    between atoms: _6  and  _7
REMARK    5  A    between atoms: _7  and  _8
REMARK    6  A    between atoms: _8  and  _9
REMARK    7  A    between atoms: _18  and  _20
REMARK    8  A    between atoms: _20  and  _21
REMARK    9  A    between atoms: _20  and  _23
REMARK   10  A    between atoms: _23  and  _24
REMARK   11  A    between atoms: _27  and  _29
REMARK   12  A    between atoms: _29  and  _30
REMARK   13  A    between atoms: _29  and  _32
REMARK   14  A    between atoms: _32  and  _33
REMARK   15  A    between atoms: _36  and  _38
REMARK   16  A    between atoms: _38  and  _39
REMARK   17  A    between atoms: _38  and  _41
REMARK   18  A    between atoms: _41  and  _42
REMARK   19  A    between atoms: _45  and  _47
REMARK   20  A    between atoms: _47  and  _48
REMARK   21  A    between atoms: _47  and  _50
REMARK   22  A    between atoms: _50  and  _51
REMARK   23  A    between atoms: _54  and  _56
REMARK   24  A    between atoms: _56  and  _57
REMARK   25  A    between atoms: _56  and  _59
REMARK   26  A    between atoms: _59  and  _60
REMARK   27  A    between atoms: _63  and  _65
REMARK   28  A    between atoms: _65  and  _66
REMARK   29  A    between atoms: _68  and  _70
REMARK   30  A    between atoms: _70  and  _71
REMARK   31  A    between atoms: _74  and  _76
REMARK   32  A    between atoms: _76  and  _77
REMARK   33  A    between atoms: _76  and  _79
REMARK   34  A    between atoms: _79  and  _80
REMARK   35  A    between atoms: _83  and  _85
REMARK   36  A    between atoms: _85  and  _86
REMARK   37  A    between atoms: _85  and  _88
REMARK   38  A    between atoms: _88  and  _89
REMARK   39  A    between atoms: _92  and  _94
REMARK   40  A    between atoms: _94  and  _95
REMARK   41  A    between atoms: _94  and  _97
REMARK   42  A    between atoms: _97  and  _98
REMARK   43  A    between atoms: _101  and  _103
REMARK   44  A    between atoms: _103  and  _104
REMARK   45  A    between atoms: _103  and  _106
REMARK   46  A    between atoms: _109  and  _111
REMARK   47  A    between atoms: _111  and  _112
REMARK   48  A    between atoms: _111  and  _114
REMARK   49  A    between atoms: _114  and  _115
REMARK   50  A    between atoms: _115  and  _116
REMARK   51  A    between atoms: _116  and  _117
REMARK   52  A    between atoms: _117  and  _118
REMARK   53  A    between atoms: _122  and  _124
REMARK   54  A    between atoms: _124  and  _125
REMARK   55  A    between atoms: _124  and  _127
REMARK   56  A    between atoms: _127  and  _128
REMARK   57  A    between atoms: _128  and  _129
REMARK   58  A    between atoms: _131  and  _133
REMARK   59  A    between atoms: _133  and  _134
REMARK   60  A    between atoms: _133  and  _136
REMARK   61  A    between atoms: _136  and  _137
REMARK   62  A    between atoms: _140  and  _142
REMARK   63  A    between atoms: _142  and  _143
REMARK   64  A    between atoms: _145  and  _147
REMARK   65  A    between atoms: _147  and  _148
REMARK   66  A    between atoms: _150  and  _152
REMARK   67  A    between atoms: _152  and  _153
REMARK   68  A    between atoms: _152  and  _155
REMARK   69  A    between atoms: _155  and  _156
REMARK   70  A    between atoms: _159  and  _161
REMARK   71  A    between atoms: _161  and  _162
REMARK   72  A    between atoms: _164  and  _166
REMARK   73  A    between atoms: _166  and  _167
REMARK   74  A    between atoms: _169  and  _171
REMARK   75  A    between atoms: _171  and  _172
REMARK   76  A    between atoms: _171  and  _174
REMARK   77  A    between atoms: _174  and  _175
REMARK   78  A    between atoms: _181  and  _183
REMARK   79  A    between atoms: _183  and  _184
REMARK   80  A    between atoms: _183  and  _186
REMARK   81  A    between atoms: _186  and  _187
REMARK   82  A    between atoms: _190  and  _192
REMARK   83  A    between atoms: _192  and  _193
REMARK   84  A    between atoms: _192  and  _195
REMARK   85  A    between atoms: _198  and  _200
REMARK   86  A    between atoms: _200  and  _201
REMARK   87  A    between atoms: _200  and  _203
REMARK   88  A    between atoms: _203  and  _204
REMARK   89  A    between atoms: _207  and  _209
REMARK   90  A    between atoms: _209  and  _210
REMARK   91  A    between atoms: _209  and  _212
REMARK   92  A    between atoms: _212  and  _213
REMARK   93  A    between atoms: _217  and  _218
REMARK   94  A    between atoms: _223  and  _225
REMARK   95  A    between atoms: _225  and  _226
REMARK   96  A    between atoms: _225  and  _228
REMARK   97  A    between atoms: _231  and  _233
REMARK   98  A    between atoms: _233  and  _234
REMARK   99  A    between atoms: _233  and  _236
REMARK  100  A    between atoms: _236  and  _237
REMARK  101  A    between atoms: _242  and  _244
REMARK  102  A    between atoms: _244  and  _245
REMARK  103  A    between atoms: _244  and  _247
REMARK  104  A    between atoms: _247  and  _248
REMARK  105  A    between atoms: _251  and  _253
REMARK  106  A    between atoms: _253  and  _254
REMARK  107  A    between atoms: _253  and  _256
REMARK  108  A    between atoms: _256  and  _257
REMARK  109  A    between atoms: _260  and  _262
REMARK  110  A    between atoms: _262  and  _263
REMARK  111  A    between atoms: _265  and  _267
REMARK  112  A    between atoms: _267  and  _268
REMARK  113  A    between atoms: _267  and  _270
REMARK  114  A    between atoms: _270  and  _271
REMARK  115  A    between atoms: _271  and  _272
REMARK  116  A    between atoms: _272  and  _273
REMARK  117  A    between atoms: _282  and  _284
REMARK  118  A    between atoms: _284  and  _285
REMARK  119  A    between atoms: _284  and  _287
REMARK  120  A    between atoms: _287  and  _288
REMARK  121  A    between atoms: _288  and  _289
REMARK  122  A    between atoms: _289  and  _290
REMARK  123  A    between atoms: _299  and  _301
REMARK  124  A    between atoms: _301  and  _302
REMARK  125  A    between atoms: _301  and  _304
REMARK  126  A    between atoms: _304  and  _305
REMARK  127  A    between atoms: _308  and  _310
REMARK  128  A    between atoms: _310  and  _311
REMARK  129  A    between atoms: _310  and  _313
REMARK  130  A    between atoms: _313  and  _314
REMARK  131  A    between atoms: _317  and  _319
REMARK  132  A    between atoms: _319  and  _320
REMARK  133  A    between atoms: _319  and  _322
REMARK  134  A    between atoms: _322  and  _323
REMARK  135  A    between atoms: _326  and  _328
REMARK  136  A    between atoms: _328  and  _329
REMARK  137  A    between atoms: _328  and  _331
REMARK  138  A    between atoms: _331  and  _332
REMARK  139  A    between atoms: _335  and  _337
REMARK  140  A    between atoms: _337  and  _338
REMARK  141  A    between atoms: _337  and  _340
REMARK  142  A    between atoms: _340  and  _341
REMARK  143  A    between atoms: _344  and  _346
REMARK  144  A    between atoms: _346  and  _347
REMARK  145  A    between atoms: _349  and  _351
REMARK  146  A    between atoms: _351  and  _352
REMARK  147  A    between atoms: _355  and  _357
REMARK  148  A    between atoms: _357  and  _358
REMARK  149  A    between atoms: _357  and  _360
REMARK  150  A    between atoms: _360  and  _361
REMARK  151  A    between atoms: _364  and  _366
REMARK  152  A    between atoms: _366  and  _367
REMARK  153  A    between atoms: _366  and  _369
REMARK  154  A    between atoms: _369  and  _370
REMARK  155  A    between atoms: _373  and  _375
REMARK  156  A    between atoms: _375  and  _376
REMARK  157  A    between atoms: _375  and  _378
REMARK  158  A    between atoms: _378  and  _379
REMARK  159  A    between atoms: _382  and  _384
REMARK  160  A    between atoms: _384  and  _385
REMARK  161  A    between atoms: _384  and  _387
REMARK  162  A    between atoms: _390  and  _392
REMARK  163  A    between atoms: _392  and  _393
REMARK  164  A    between atoms: _392  and  _395
REMARK  165  A    between atoms: _395  and  _396
REMARK  166  A    between atoms: _396  and  _397
REMARK  167  A    between atoms: _397  and  _398
REMARK  168  A    between atoms: _398  and  _399
REMARK  169  A    between atoms: _403  and  _405
REMARK  170  A    between atoms: _405  and  _406
REMARK  171  A    between atoms: _405  and  _408
REMARK  172  A    between atoms: _408  and  _409
REMARK  173  A    between atoms: _409  and  _410
REMARK  174  A    between atoms: _412  and  _414
REMARK  175  A    between atoms: _414  and  _415
REMARK  176  A    between atoms: _414  and  _417
REMARK  177  A    between atoms: _417  and  _418
REMARK  178  A    between atoms: _421  and  _423
REMARK  179  A    between atoms: _423  and  _424
REMARK  180  A    between atoms: _426  and  _428
REMARK  181  A    between atoms: _428  and  _429
REMARK  182  A    between atoms: _431  and  _433
REMARK  183  A    between atoms: _433  and  _434
REMARK  184  A    between atoms: _433  and  _436
REMARK  185  A    between atoms: _436  and  _437
REMARK  186  A    between atoms: _440  and  _442
REMARK  187  A    between atoms: _442  and  _443
REMARK  188  A    between atoms: _445  and  _447
REMARK  189  A    between atoms: _447  and  _448
REMARK  190  A    between atoms: _450  and  _452
REMARK  191  A    between atoms: _452  and  _453
REMARK  192  A    between atoms: _452  and  _455
REMARK  193  A    between atoms: _455  and  _456
REMARK  194  A    between atoms: _462  and  _464
REMARK  195  A    between atoms: _464  and  _465
REMARK  196  A    between atoms: _464  and  _467
REMARK  197  A    between atoms: _467  and  _468
REMARK  198  A    between atoms: _471  and  _473
REMARK  199  A    between atoms: _473  and  _474
REMARK  200  A    between atoms: _473  and  _476
REMARK  201  A    between atoms: _479  and  _481
REMARK  202  A    between atoms: _481  and  _482
REMARK  203  A    between atoms: _481  and  _484
REMARK  204  A    between atoms: _484  and  _485
REMARK  205  A    between atoms: _489  and  _490
REMARK  206  A    between atoms: _495  and  _497
REMARK  207  A    between atoms: _497  and  _498
REMARK  208  A    between atoms: _497  and  _500
REMARK  209  A    between atoms: _500  and  _501
REMARK  210  A    between atoms: _505  and  _506
REMARK  211  A    between atoms: _511  and  _513
REMARK  212  A    between atoms: _513  and  _514
REMARK  213  A    between atoms: _513  and  _516
REMARK  214  A    between atoms: _519  and  _521
REMARK  215  A    between atoms: _521  and  _522
REMARK  216  A    between atoms: _521  and  _524
REMARK  217  A    between atoms: _524  and  _525
REMARK  218  A    between atoms: _530  and  _532
REMARK  219  A    between atoms: _532  and  _533
REMARK  220  A    between atoms: _532  and  _535
REMARK  221  A    between atoms: _535  and  _536
REMARK  222  A    between atoms: _539  and  _541
REMARK  223  A    between atoms: _541  and  _542
REMARK  224  A    between atoms: _541  and  _544
REMARK  225  A    between atoms: _544  and  _545
REMARK  226  A    between atoms: _548  and  _550
REMARK  227  A    between atoms: _550  and  _551
REMARK  228  A    between atoms: _553  and  _555
REMARK  229  A    between atoms: _555  and  _556
REMARK  230  A    between atoms: _555  and  _558
REMARK  231  A    between atoms: _558  and  _559
REMARK  232  A    between atoms: _559  and  _560
REMARK  233  A    between atoms: _560  and  _561
REMARK                            x       y       z     vdW  Elec       q    Type
REMARK                         _______ _______ _______ _____ _____    ______ ____
ROOT
ATOM      1  O   HOH     1       4.334  28.868   7.823  0.00  0.00    +0.000 OA
ENDROOT
TORSDOF 0
REMARK  Name = ../refined-set-2016/1ec1/1ec1_pocket.pdb
REMARK  233 active torsions:
REMARK  status: ('A' for Active; 'I' for Inactive)
REMARK    1  A    between atoms: _1  and  _3
REMARK    2  A    between atoms: _3  and  _4
REMARK    3  A    between atoms: _3  and  _6
REMARK    4  A    between atoms: _6  and  _7
REMARK    5  A    between atoms: _7  and  _8
REMARK    6  A    between atoms: _8  and  _9
REMARK    7  A    between atoms: _18  and  _20
REMARK    8  A    between atoms: _20  and  _21
REMARK    9  A    between atoms: _20  and  _23
REMARK   10  A    between atoms: _23  and  _24
REMARK   11  A    between atoms: _27  and  _29
REMARK   12  A    between atoms: _29  and  _30
REMARK   13  A    between atoms: _29  and  _32
REMARK   14  A    between atoms: _32  and  _33
REMARK   15  A    between atoms: _36  and  _38
REMARK   16  A    between atoms: _38  and  _39
REMARK   17  A    between atoms: _38  and  _41
REMARK   18  A    between atoms: _41  and  _42
REMARK   19  A    between atoms: _45  and  _47
REMARK   20  A    between atoms: _47  and  _48
REMARK   21  A    between atoms: _47  and  _50
REMARK   22  A    between atoms: _50  and  _51
REMARK   23  A    between atoms: _54  and  _56
REMARK   24  A    between atoms: _56  and  _57
REMARK   25  A    between atoms: _56  and  _59
REMARK   26  A    between atoms: _59  and  _60
REMARK   27  A    between atoms: _63  and  _65
REMARK   28  A    between atoms: _65  and  _66
REMARK   29  A    between atoms: _68  and  _70
REMARK   30  A    between atoms: _70  and  _71
REMARK   31  A    between atoms: _74  and  _76
REMARK   32  A    between atoms: _76  and  _77
REMARK   33  A    between atoms: _76  and  _79
REMARK   34  A    between atoms: _79  and  _80
REMARK   35  A    between atoms: _83  and  _85
REMARK   36  A    between atoms: _85  and  _86
REMARK   37  A    between atoms: _85  and  _88
REMARK   38  A    between atoms: _88  and  _89
REMARK   39  A    between atoms: _92  and  _94
REMARK   40  A    between atoms: _94  and  _95
REMARK   41  A    between atoms: _94  and  _97
REMARK   42  A    between atoms: _97  and  _98
REMARK   43  A    between atoms: _101  and  _103
REMARK   44  A    between atoms: _103  and  _104
REMARK   45  A    between atoms: _103  and  _106
REMARK   46  A    between atoms: _109  and  _111
REMARK   47  A    between atoms: _111  and  _112
REMARK   48  A    between atoms: _111  and  _114
REMARK   49  A    between atoms: _114  and  _115
REMARK   50  A    between atoms: _115  and  _116
REMARK   51  A    between atoms: _116  and  _117
REMARK   52  A    between atoms: _117  and  _118
REMARK   53  A    between atoms: _122  and  _124
REMARK   54  A    between atoms: _124  and  _125
REMARK   55  A    between atoms: _124  and  _127
REMARK   56  A    between atoms: _127  and  _128
REMARK   57  A    between atoms: _128  and  _129
REMARK   58  A    between atoms: _131  and  _133
REMARK   59  A    between atoms: _133  and  _134
REMARK   60  A    between atoms: _133  and  _136
REMARK   61  A    between atoms: _136  and  _137
REMARK   62  A    between atoms: _140  and  _142
REMARK   63  A    between atoms: _142  and  _143
REMARK   64  A    between atoms: _145  and  _147
REMARK   65  A    between atoms: _147  and  _148
REMARK   66  A    between atoms: _150  and  _152
REMARK   67  A    between atoms: _152  and  _153
REMARK   68  A    between atoms: _152  and  _155
REMARK   69  A    between atoms: _155  and  _156
REMARK   70  A    between atoms: _159  and  _161
REMARK   71  A    between atoms: _161  and  _162
REMARK   72  A    between atoms: _164  and  _166
REMARK   73  A    between atoms: _166  and  _167
REMARK   74  A    between atoms: _169  and  _171
REMARK   75  A    between atoms: _171  and  _172
REMARK   76  A    between atoms: _171  and  _174
REMARK   77  A    between atoms: _174  and  _175
REMARK   78  A    between atoms: _181  and  _183
REMARK   79  A    between atoms: _183  and  _184
REMARK   80  A    between atoms: _183  and  _186
REMARK   81  A    between atoms: _186  and  _187
REMARK   82  A    between atoms: _190  and  _192
REMARK   83  A    between atoms: _192  and  _193
REMARK   84  A    between atoms: _192  and  _195
REMARK   85  A    between atoms: _198  and  _200
REMARK   86  A    between atoms: _200  and  _201
REMARK   87  A    between atoms: _200  and  _203
REMARK   88  A    between atoms: _203  and  _204
REMARK   89  A    between atoms: _207  and  _209
REMARK   90  A    between atoms: _209  and  _210
REMARK   91  A    between atoms: _209  and  _212
REMARK   92  A    between atoms: _212  and  _213
REMARK   93  A    between atoms: _217  and  _218
REMARK   94  A    between atoms: _223  and  _225
REMARK   95  A    between atoms: _225  and  _226
REMARK   96  A    between atoms: _225  and  _228
REMARK   97  A    between atoms: _231  and  _233
REMARK   98  A    between atoms: _233  and  _234
REMARK   99  A    between atoms: _233  and  _236
REMARK  100  A    between atoms: _236  and  _237
REMARK  101  A    between atoms: _242  and  _244
REMARK  102  A    between atoms: _244  and  _245
REMARK  103  A    between atoms: _244  and  _247
REMARK  104  A    between atoms: _247  and  _248
REMARK  105  A    between atoms: _251  and  _253
REMARK  106  A    between atoms: _253  and  _254
REMARK  107  A    between atoms: _253  and  _256
REMARK  108  A    between atoms: _256  and  _257
REMARK  109  A    between atoms: _260  and  _262
REMARK  110  A    between atoms: _262  and  _263
REMARK  111  A    between atoms: _265  and  _267
REMARK  112  A    between atoms: _267  and  _268
REMARK  113  A    between atoms: _267  and  _270
REMARK  114  A    between atoms: _270  and  _271
REMARK  115  A    between atoms: _271  and  _272
REMARK  116  A    between atoms: _272  and  _273
REMARK  117  A    between atoms: _282  and  _284
REMARK  118  A    between atoms: _284  and  _285
REMARK  119  A    between atoms: _284  and  _287
REMARK  120  A    between atoms: _287  and  _288
REMARK  121  A    between atoms: _288  and  _289
REMARK  122  A    between atoms: _289  and  _290
REMARK  123  A    between atoms: _299  and  _301
REMARK  124  A    between atoms: _301  and  _302
REMARK  125  A    between atoms: _301  and  _304
REMARK  126  A    between atoms: _304  and  _305
REMARK  127  A    between atoms: _308  and  _310
REMARK  128  A    between atoms: _310  and  _311
REMARK  129  A    between atoms: _310  and  _313
REMARK  130  A    between atoms: _313  and  _314
REMARK  131  A    between atoms: _317  and  _319
REMARK  132  A    between atoms: _319  and  _320
REMARK  133  A    between atoms: _319  and  _322
REMARK  134  A    between atoms: _322  and  _323
REMARK  135  A    between atoms: _326  and  _328
REMARK  136  A    between atoms: _328  and  _329
REMARK  137  A    between atoms: _328  and  _331
REMARK  138  A    between atoms: _331  and  _332
REMARK  139  A    between atoms: _335  and  _337
REMARK  140  A    between atoms: _337  and  _338
REMARK  141  A    between atoms: _337  and  _340
REMARK  142  A    between atoms: _340  and  _341
REMARK  143  A    between atoms: _344  and  _346
REMARK  144  A    between atoms: _346  and  _347
REMARK  145  A    between atoms: _349  and  _351
REMARK  146  A    between atoms: _351  and  _352
REMARK  147  A    between atoms: _355  and  _357
REMARK  148  A    between atoms: _357  and  _358
REMARK  149  A    between atoms: _357  and  _360
REMARK  150  A    between atoms: _360  and  _361
REMARK  151  A    between atoms: _364  and  _366
REMARK  152  A    between atoms: _366  and  _367
REMARK  153  A    between atoms: _366  and  _369
REMARK  154  A    between atoms: _369  and  _370
REMARK  155  A    between atoms: _373  and  _375
REMARK  156  A    between atoms: _375  and  _376
REMARK  157  A    between atoms: _375  and  _378
REMARK  158  A    between atoms: _378  and  _379
REMARK  159  A    between atoms: _382  and  _384
REMARK  160  A    between atoms: _384  and  _385
REMARK  161  A    between atoms: _384  and  _387
REMARK  162  A    between atoms: _390  and  _392
REMARK  163  A    between atoms: _392  and  _393
REMARK  164  A    between atoms: _392  and  _395
REMARK  165  A    between atoms: _395  and  _396
REMARK  166  A    between atoms: _396  and  _397
REMARK  167  A    between atoms: _397  and  _398
REMARK  168  A    between atoms: _398  and  _399
REMARK  169  A    between atoms: _403  and  _405
REMARK  170  A    between atoms: _405  and  _406
REMARK  171  A    between atoms: _405  and  _408
REMARK  172  A    between atoms: _408  and  _409
REMARK  173  A    between atoms: _409  and  _410
REMARK  174  A    between atoms: _412  and  _414
REMARK  175  A    between atoms: _414  and  _415
REMARK  176  A    between atoms: _414  and  _417
REMARK  177  A    between atoms: _417  and  _418
REMARK  178  A    between atoms: _421  and  _423
REMARK  179  A    between atoms: _423  and  _424
REMARK  180  A    between atoms: _426  and  _428
REMARK  181  A    between atoms: _428  and  _429
REMARK  182  A    between atoms: _431  and  _433
REMARK  183  A    between atoms: _433  and  _434
REMARK  184  A    between atoms: _433  and  _436
REMARK  185  A    between atoms: _436  and  _437
REMARK  186  A    between atoms: _440  and  _442
REMARK  187  A    between atoms: _442  and  _443
REMARK  188  A    between atoms: _445  and  _447
REMARK  189  A    between atoms: _447  and  _448
REMARK  190  A    between atoms: _450  and  _452
REMARK  191  A    between atoms: _452  and  _453
REMARK  192  A    between atoms: _452  and  _455
REMARK  193  A    between atoms: _455  and  _456
REMARK  194  A    between atoms: _462  and  _464
REMARK  195  A    between atoms: _464  and  _465
REMARK  196  A    between atoms: _464  and  _467
REMARK  197  A    between atoms: _467  and  _468
REMARK  198  A    between atoms: _471  and  _473
REMARK  199  A    between atoms: _473  and  _474
REMARK  200  A    between atoms: _473  and  _476
REMARK  201  A    between atoms: _479  and  _481
REMARK  202  A    between atoms: _481  and  _482
REMARK  203  A    between atoms: _481  and  _484
REMARK  204  A    between atoms: _484  and  _485
REMARK  205  A    between atoms: _489  and  _490
REMARK  206  A    between atoms: _495  and  _497
REMARK  207  A    between atoms: _497  and  _498
REMARK  208  A    between atoms: _497  and  _500
REMARK  209  A    between atoms: _500  and  _501
REMARK  210  A    between atoms: _505  and  _506
REMARK  211  A    between atoms: _511  and  _513
REMARK  212  A    between atoms: _513  and  _514
REMARK  213  A    between atoms: _513  and  _516
REMARK  214  A    between atoms: _519  and  _521
REMARK  215  A    between atoms: _521  and  _522
REMARK  216  A    between atoms: _521  and  _524
REMARK  217  A    between atoms: _524  and  _525
REMARK  218  A    between atoms: _530  and  _532
REMARK  219  A    between atoms: _532  and  _533
REMARK  220  A    between atoms: _532  and  _535
REMARK  221  A    between atoms: _535  and  _536
REMARK  222  A    between atoms: _539  and  _541
REMARK  223  A    between atoms: _541  and  _542
REMARK  224  A    between atoms: _541  and  _544
REMARK  225  A    between atoms: _544  and  _545
REMARK  226  A    between atoms: _548  and  _550
REMARK  227  A    between atoms: _550  and  _551
REMARK  228  A    between atoms: _553  and  _555
REMARK  229  A    between atoms: _555  and  _556
REMARK  230  A    between atoms: _555  and  _558
REMARK  231  A    between atoms: _558  and  _559
REMARK  232  A    between atoms: _559  and  _560
REMARK  233  A    between atoms: _560  and  _561
REMARK                            x       y       z     vdW  Elec       q    Type
REMARK                         _______ _______ _______ _____ _____    ______ ____
ROOT
ATOM      1  O   HOH     1      19.713  15.805  14.454  0.00  0.00    +0.000 OA
ENDROOT
TORSDOF 0
REMARK  Name = ../refined-set-2016/1ec1/1ec1_pocket.pdb
REMARK  233 active torsions:
REMARK  status: ('A' for Active; 'I' for Inactive)
REMARK    1  A    between atoms: _1  and  _3
REMARK    2  A    between atoms: _3  and  _4
REMARK    3  A    between atoms: _3  and  _6
REMARK    4  A    between atoms: _6  and  _7
REMARK    5  A    between atoms: _7  and  _8
REMARK    6  A    between atoms: _8  and  _9
REMARK    7  A    between atoms: _18  and  _20
REMARK    8  A    between atoms: _20  and  _21
REMARK    9  A    between atoms: _20  and  _23
REMARK   10  A    between atoms: _23  and  _24
REMARK   11  A    between atoms: _27  and  _29
REMARK   12  A    between atoms: _29  and  _30
REMARK   13  A    between atoms: _29  and  _32
REMARK   14  A    between atoms: _32  and  _33
REMARK   15  A    between atoms: _36  and  _38
REMARK   16  A    between atoms: _38  and  _39
REMARK   17  A    between atoms: _38  and  _41
REMARK   18  A    between atoms: _41  and  _42
REMARK   19  A    between atoms: _45  and  _47
REMARK   20  A    between atoms: _47  and  _48
REMARK   21  A    between atoms: _47  and  _50
REMARK   22  A    between atoms: _50  and  _51
REMARK   23  A    between atoms: _54  and  _56
REMARK   24  A    between atoms: _56  and  _57
REMARK   25  A    between atoms: _56  and  _59
REMARK   26  A    between atoms: _59  and  _60
REMARK   27  A    between atoms: _63  and  _65
REMARK   28  A    between atoms: _65  and  _66
REMARK   29  A    between atoms: _68  and  _70
REMARK   30  A    between atoms: _70  and  _71
REMARK   31  A    between atoms: _74  and  _76
REMARK   32  A    between atoms: _76  and  _77
REMARK   33  A    between atoms: _76  and  _79
REMARK   34  A    between atoms: _79  and  _80
REMARK   35  A    between atoms: _83  and  _85
REMARK   36  A    between atoms: _85  and  _86
REMARK   37  A    between atoms: _85  and  _88
REMARK   38  A    between atoms: _88  and  _89
REMARK   39  A    between atoms: _92  and  _94
REMARK   40  A    between atoms: _94  and  _95
REMARK   41  A    between atoms: _94  and  _97
REMARK   42  A    between atoms: _97  and  _98
REMARK   43  A    between atoms: _101  and  _103
REMARK   44  A    between atoms: _103  and  _104
REMARK   45  A    between atoms: _103  and  _106
REMARK   46  A    between atoms: _109  and  _111
REMARK   47  A    between atoms: _111  and  _112
REMARK   48  A    between atoms: _111  and  _114
REMARK   49  A    between atoms: _114  and  _115
REMARK   50  A    between atoms: _115  and  _116
REMARK   51  A    between atoms: _116  and  _117
REMARK   52  A    between atoms: _117  and  _118
REMARK   53  A    between atoms: _122  and  _124
REMARK   54  A    between atoms: _124  and  _125
REMARK   55  A    between atoms: _124  and  _127
REMARK   56  A    between atoms: _127  and  _128
REMARK   57  A    between atoms: _128  and  _129
REMARK   58  A    between atoms: _131  and  _133
REMARK   59  A    between atoms: _133  and  _134
REMARK   60  A    between atoms: _133  and  _136
REMARK   61  A    between atoms: _136  and  _137
REMARK   62  A    between atoms: _140  and  _142
REMARK   63  A    between atoms: _142  and  _143
REMARK   64  A    between atoms: _145  and  _147
REMARK   65  A    between atoms: _147  and  _148
REMARK   66  A    between atoms: _150  and  _152
REMARK   67  A    between atoms: _152  and  _153
REMARK   68  A    between atoms: _152  and  _155
REMARK   69  A    between atoms: _155  and  _156
REMARK   70  A    between atoms: _159  and  _161
REMARK   71  A    between atoms: _161  and  _162
REMARK   72  A    between atoms: _164  and  _166
REMARK   73  A    between atoms: _166  and  _167
REMARK   74  A    between atoms: _169  and  _171
REMARK   75  A    between atoms: _171  and  _172
REMARK   76  A    between atoms: _171  and  _174
REMARK   77  A    between atoms: _174  and  _175
REMARK   78  A    between atoms: _181  and  _183
REMARK   79  A    between atoms: _183  and  _184
REMARK   80  A    between atoms: _183  and  _186
REMARK   81  A    between atoms: _186  and  _187
REMARK   82  A    between atoms: _190  and  _192
REMARK   83  A    between atoms: _192  and  _193
REMARK   84  A    between atoms: _192  and  _195
REMARK   85  A    between atoms: _198  and  _200
REMARK   86  A    between atoms: _200  and  _201
REMARK   87  A    between atoms: _200  and  _203
REMARK   88  A    between atoms: _203  and  _204
REMARK   89  A    between atoms: _207  and  _209
REMARK   90  A    between atoms: _209  and  _210
REMARK   91  A    between atoms: _209  and  _212
REMARK   92  A    between atoms: _212  and  _213
REMARK   93  A    between atoms: _217  and  _218
REMARK   94  A    between atoms: _223  and  _225
REMARK   95  A    between atoms: _225  and  _226
REMARK   96  A    between atoms: _225  and  _228
REMARK   97  A    between atoms: _231  and  _233
REMARK   98  A    between atoms: _233  and  _234
REMARK   99  A    between atoms: _233  and  _236
REMARK  100  A    between atoms: _236  and  _237
REMARK  101  A    between atoms: _242  and  _244
REMARK  102  A    between atoms: _244  and  _245
REMARK  103  A    between atoms: _244  and  _247
REMARK  104  A    between atoms: _247  and  _248
REMARK  105  A    between atoms: _251  and  _253
REMARK  106  A    between atoms: _253  and  _254
REMARK  107  A    between atoms: _253  and  _256
REMARK  108  A    between atoms: _256  and  _257
REMARK  109  A    between atoms: _260  and  _262
REMARK  110  A    between atoms: _262  and  _263
REMARK  111  A    between atoms: _265  and  _267
REMARK  112  A    between atoms: _267  and  _268
REMARK  113  A    between atoms: _267  and  _270
REMARK  114  A    between atoms: _270  and  _271
REMARK  115  A    between atoms: _271  and  _272
REMARK  116  A    between atoms: _272  and  _273
REMARK  117  A    between atoms: _282  and  _284
REMARK  118  A    between atoms: _284  and  _285
REMARK  119  A    between atoms: _284  and  _287
REMARK  120  A    between atoms: _287  and  _288
REMARK  121  A    between atoms: _288  and  _289
REMARK  122  A    between atoms: _289  and  _290
REMARK  123  A    between atoms: _299  and  _301
REMARK  124  A    between atoms: _301  and  _302
REMARK  125  A    between atoms: _301  and  _304
REMARK  126  A    between atoms: _304  and  _305
REMARK  127  A    between atoms: _308  and  _310
REMARK  128  A    between atoms: _310  and  _311
REMARK  129  A    between atoms: _310  and  _313
REMARK  130  A    between atoms: _313  and  _314
REMARK  131  A    between atoms: _317  and  _319
REMARK  132  A    between atoms: _319  and  _320
REMARK  133  A    between atoms: _319  and  _322
REMARK  134  A    between atoms: _322  and  _323
REMARK  135  A    between atoms: _326  and  _328
REMARK  136  A    between atoms: _328  and  _329
REMARK  137  A    between atoms: _328  and  _331
REMARK  138  A    between atoms: _331  and  _332
REMARK  139  A    between atoms: _335  and  _337
REMARK  140  A    between atoms: _337  and  _338
REMARK  141  A    between atoms: _337  and  _340
REMARK  142  A    between atoms: _340  and  _341
REMARK  143  A    between atoms: _344  and  _346
REMARK  144  A    between atoms: _346  and  _347
REMARK  145  A    between atoms: _349  and  _351
REMARK  146  A    between atoms: _351  and  _352
REMARK  147  A    between atoms: _355  and  _357
REMARK  148  A    between atoms: _357  and  _358
REMARK  149  A    between atoms: _357  and  _360
REMARK  150  A    between atoms: _360  and  _361
REMARK  151  A    between atoms: _364  and  _366
REMARK  152  A    between atoms: _366  and  _367
REMARK  153  A    between atoms: _366  and  _369
REMARK  154  A    between atoms: _369  and  _370
REMARK  155  A    between atoms: _373  and  _375
REMARK  156  A    between atoms: _375  and  _376
REMARK  157  A    between atoms: _375  and  _378
REMARK  158  A    between atoms: _378  and  _379
REMARK  159  A    between atoms: _382  and  _384
REMARK  160  A    between atoms: _384  and  _385
REMARK  161  A    between atoms: _384  and  _387
REMARK  162  A    between atoms: _390  and  _392
REMARK  163  A    between atoms: _392  and  _393
REMARK  164  A    between atoms: _392  and  _395
REMARK  165  A    between atoms: _395  and  _396
REMARK  166  A    between atoms: _396  and  _397
REMARK  167  A    between atoms: _397  and  _398
REMARK  168  A    between atoms: _398  and  _399
REMARK  169  A    between atoms: _403  and  _405
REMARK  170  A    between atoms: _405  and  _406
REMARK  171  A    between atoms: _405  and  _408
REMARK  172  A    between atoms: _408  and  _409
REMARK  173  A    between atoms: _409  and  _410
REMARK  174  A    between atoms: _412  and  _414
REMARK  175  A    between atoms: _414  and  _415
REMARK  176  A    between atoms: _414  and  _417
REMARK  177  A    between atoms: _417  and  _418
REMARK  178  A    between atoms: _421  and  _423
REMARK  179  A    between atoms: _423  and  _424
REMARK  180  A    between atoms: _426  and  _428
REMARK  181  A    between atoms: _428  and  _429
REMARK  182  A    between atoms: _431  and  _433
REMARK  183  A    between atoms: _433  and  _434
REMARK  184  A    between atoms: _433  and  _436
REMARK  185  A    between atoms: _436  and  _437
REMARK  186  A    between atoms: _440  and  _442
REMARK  187  A    between atoms: _442  and  _443
REMARK  188  A    between atoms: _445  and  _447
REMARK  189  A    between atoms: _447  and  _448
REMARK  190  A    between atoms: _450  and  _452
REMARK  191  A    between atoms: _452  and  _453
REMARK  192  A    between atoms: _452  and  _455
REMARK  193  A    between atoms: _455  and  _456
REMARK  194  A    between atoms: _462  and  _464
REMARK  195  A    between atoms: _464  and  _465
REMARK  196  A    between atoms: _464  and  _467
REMARK  197  A    between atoms: _467  and  _468
REMARK  198  A    between atoms: _471  and  _473
REMARK  199  A    between atoms: _473  and  _474
REMARK  200  A    between atoms: _473  and  _476
REMARK  201  A    between atoms: _479  and  _481
REMARK  202  A    between atoms: _481  and  _482
REMARK  203  A    between atoms: _481  and  _484
REMARK  204  A    between atoms: _484  and  _485
REMARK  205  A    between atoms: _489  and  _490
REMARK  206  A    between atoms: _495  and  _497
REMARK  207  A    between atoms: _497  and  _498
REMARK  208  A    between atoms: _497  and  _500
REMARK  209  A    between atoms: _500  and  _501
REMARK  210  A    between atoms: _505  and  _506
REMARK  211  A    between atoms: _511  and  _513
REMARK  212  A    between atoms: _513  and  _514
REMARK  213  A    between atoms: _513  and  _516
REMARK  214  A    between atoms: _519  and  _521
REMARK  215  A    between atoms: _521  and  _522
REMARK  216  A    between atoms: _521  and  _524
REMARK  217  A    between atoms: _524  and  _525
REMARK  218  A    between atoms: _530  and  _532
REMARK  219  A    between atoms: _532  and  _533
REMARK  220  A    between atoms: _532  and  _535
REMARK  221  A    between atoms: _535  and  _536
REMARK  222  A    between atoms: _539  and  _541
REMARK  223  A    between atoms: _541  and  _542
REMARK  224  A    between atoms: _541  and  _544
REMARK  225  A    between atoms: _544  and  _545
REMARK  226  A    between atoms: _548  and  _550
REMARK  227  A    between atoms: _550  and  _551
REMARK  228  A    between atoms: _553  and  _555
REMARK  229  A    between atoms: _555  and  _556
REMARK  230  A    between atoms: _555  and  _558
REMARK  231  A    between atoms: _558  and  _559
REMARK  232  A    between atoms: _559  and  _560
REMARK  233  A    between atoms: _560  and  _561
REMARK                            x       y       z     vdW  Elec       q    Type
REMARK                         _______ _______ _______ _____ _____    ______ ____
ROOT
ATOM      1  O   HOH     1       4.833  32.857   6.947  0.00  0.00    +0.000 OA
ENDROOT
TORSDOF 0
REMARK  Name = ../refined-set-2016/1ec1/1ec1_pocket.pdb
REMARK  233 active torsions:
REMARK  status: ('A' for Active; 'I' for Inactive)
REMARK    1  A    between atoms: _1  and  _3
REMARK    2  A    between atoms: _3  and  _4
REMARK    3  A    between atoms: _3  and  _6
REMARK    4  A    between atoms: _6  and  _7
REMARK    5  A    between atoms: _7  and  _8
REMARK    6  A    between atoms: _8  and  _9
REMARK    7  A    between atoms: _18  and  _20
REMARK    8  A    between atoms: _20  and  _21
REMARK    9  A    between atoms: _20  and  _23
REMARK   10  A    between atoms: _23  and  _24
REMARK   11  A    between atoms: _27  and  _29
REMARK   12  A    between atoms: _29  and  _30
REMARK   13  A    between atoms: _29  and  _32
REMARK   14  A    between atoms: _32  and  _33
REMARK   15  A    between atoms: _36  and  _38
REMARK   16  A    between atoms: _38  and  _39
REMARK   17  A    between atoms: _38  and  _41
REMARK   18  A    between atoms: _41  and  _42
REMARK   19  A    between atoms: _45  and  _47
REMARK   20  A    between atoms: _47  and  _48
REMARK   21  A    between atoms: _47  and  _50
REMARK   22  A    between atoms: _50  and  _51
REMARK   23  A    between atoms: _54  and  _56
REMARK   24  A    between atoms: _56  and  _57
REMARK   25  A    between atoms: _56  and  _59
REMARK   26  A    between atoms: _59  and  _60
REMARK   27  A    between atoms: _63  and  _65
REMARK   28  A    between atoms: _65  and  _66
REMARK   29  A    between atoms: _68  and  _70
REMARK   30  A    between atoms: _70  and  _71
REMARK   31  A    between atoms: _74  and  _76
REMARK   32  A    between atoms: _76  and  _77
REMARK   33  A    between atoms: _76  and  _79
REMARK   34  A    between atoms: _79  and  _80
REMARK   35  A    between atoms: _83  and  _85
REMARK   36  A    between atoms: _85  and  _86
REMARK   37  A    between atoms: _85  and  _88
REMARK   38  A    between atoms: _88  and  _89
REMARK   39  A    between atoms: _92  and  _94
REMARK   40  A    between atoms: _94  and  _95
REMARK   41  A    between atoms: _94  and  _97
REMARK   42  A    between atoms: _97  and  _98
REMARK   43  A    between atoms: _101  and  _103
REMARK   44  A    between atoms: _103  and  _104
REMARK   45  A    between atoms: _103  and  _106
REMARK   46  A    between atoms: _109  and  _111
REMARK   47  A    between atoms: _111  and  _112
REMARK   48  A    between atoms: _111  and  _114
REMARK   49  A    between atoms: _114  and  _115
REMARK   50  A    between atoms: _115  and  _116
REMARK   51  A    between atoms: _116  and  _117
REMARK   52  A    between atoms: _117  and  _118
REMARK   53  A    between atoms: _122  and  _124
REMARK   54  A    between atoms: _124  and  _125
REMARK   55  A    between atoms: _124  and  _127
REMARK   56  A    between atoms: _127  and  _128
REMARK   57  A    between atoms: _128  and  _129
REMARK   58  A    between atoms: _131  and  _133
REMARK   59  A    between atoms: _133  and  _134
REMARK   60  A    between atoms: _133  and  _136
REMARK   61  A    between atoms: _136  and  _137
REMARK   62  A    between atoms: _140  and  _142
REMARK   63  A    between atoms: _142  and  _143
REMARK   64  A    between atoms: _145  and  _147
REMARK   65  A    between atoms: _147  and  _148
REMARK   66  A    between atoms: _150  and  _152
REMARK   67  A    between atoms: _152  and  _153
REMARK   68  A    between atoms: _152  and  _155
REMARK   69  A    between atoms: _155  and  _156
REMARK   70  A    between atoms: _159  and  _161
REMARK   71  A    between atoms: _161  and  _162
REMARK   72  A    between atoms: _164  and  _166
REMARK   73  A    between atoms: _166  and  _167
REMARK   74  A    between atoms: _169  and  _171
REMARK   75  A    between atoms: _171  and  _172
REMARK   76  A    between atoms: _171  and  _174
REMARK   77  A    between atoms: _174  and  _175
REMARK   78  A    between atoms: _181  and  _183
REMARK   79  A    between atoms: _183  and  _184
REMARK   80  A    between atoms: _183  and  _186
REMARK   81  A    between atoms: _186  and  _187
REMARK   82  A    between atoms: _190  and  _192
REMARK   83  A    between atoms: _192  and  _193
REMARK   84  A    between atoms: _192  and  _195
REMARK   85  A    between atoms: _198  and  _200
REMARK   86  A    between atoms: _200  and  _201
REMARK   87  A    between atoms: _200  and  _203
REMARK   88  A    between atoms: _203  and  _204
REMARK   89  A    between atoms: _207  and  _209
REMARK   90  A    between atoms: _209  and  _210
REMARK   91  A    between atoms: _209  and  _212
REMARK   92  A    between atoms: _212  and  _213
REMARK   93  A    between atoms: _217  and  _218
REMARK   94  A    between atoms: _223  and  _225
REMARK   95  A    between atoms: _225  and  _226
REMARK   96  A    between atoms: _225  and  _228
REMARK   97  A    between atoms: _231  and  _233
REMARK   98  A    between atoms: _233  and  _234
REMARK   99  A    between atoms: _233  and  _236
REMARK  100  A    between atoms: _236  and  _237
REMARK  101  A    between atoms: _242  and  _244
REMARK  102  A    between atoms: _244  and  _245
REMARK  103  A    between atoms: _244  and  _247
REMARK  104  A    between atoms: _247  and  _248
REMARK  105  A    between atoms: _251  and  _253
REMARK  106  A    between atoms: _253  and  _254
REMARK  107  A    between atoms: _253  and  _256
REMARK  108  A    between atoms: _256  and  _257
REMARK  109  A    between atoms: _260  and  _262
REMARK  110  A    between atoms: _262  and  _263
REMARK  111  A    between atoms: _265  and  _267
REMARK  112  A    between atoms: _267  and  _268
REMARK  113  A    between atoms: _267  and  _270
REMARK  114  A    between atoms: _270  and  _271
REMARK  115  A    between atoms: _271  and  _272
REMARK  116  A    between atoms: _272  and  _273
REMARK  117  A    between atoms: _282  and  _284
REMARK  118  A    between atoms: _284  and  _285
REMARK  119  A    between atoms: _284  and  _287
REMARK  120  A    between atoms: _287  and  _288
REMARK  121  A    between atoms: _288  and  _289
REMARK  122  A    between atoms: _289  and  _290
REMARK  123  A    between atoms: _299  and  _301
REMARK  124  A    between atoms: _301  and  _302
REMARK  125  A    between atoms: _301  and  _304
REMARK  126  A    between atoms: _304  and  _305
REMARK  127  A    between atoms: _308  and  _310
REMARK  128  A    between atoms: _310  and  _311
REMARK  129  A    between atoms: _310  and  _313
REMARK  130  A    between atoms: _313  and  _314
REMARK  131  A    between atoms: _317  and  _319
REMARK  132  A    between atoms: _319  and  _320
REMARK  133  A    between atoms: _319  and  _322
REMARK  134  A    between atoms: _322  and  _323
REMARK  135  A    between atoms: _326  and  _328
REMARK  136  A    between atoms: _328  and  _329
REMARK  137  A    between atoms: _328  and  _331
REMARK  138  A    between atoms: _331  and  _332
REMARK  139  A    between atoms: _335  and  _337
REMARK  140  A    between atoms: _337  and  _338
REMARK  141  A    between atoms: _337  and  _340
REMARK  142  A    between atoms: _340  and  _341
REMARK  143  A    between atoms: _344  and  _346
REMARK  144  A    between atoms: _346  and  _347
REMARK  145  A    between atoms: _349  and  _351
REMARK  146  A    between atoms: _351  and  _352
REMARK  147  A    between atoms: _355  and  _357
REMARK  148  A    between atoms: _357  and  _358
REMARK  149  A    between atoms: _357  and  _360
REMARK  150  A    between atoms: _360  and  _361
REMARK  151  A    between atoms: _364  and  _366
REMARK  152  A    between atoms: _366  and  _367
REMARK  153  A    between atoms: _366  and  _369
REMARK  154  A    between atoms: _369  and  _370
REMARK  155  A    between atoms: _373  and  _375
REMARK  156  A    between atoms: _375  and  _376
REMARK  157  A    between atoms: _375  and  _378
REMARK  158  A    between atoms: _378  and  _379
REMARK  159  A    between atoms: _382  and  _384
REMARK  160  A    between atoms: _384  and  _385
REMARK  161  A    between atoms: _384  and  _387
REMARK  162  A    between atoms: _390  and  _392
REMARK  163  A    between atoms: _392  and  _393
REMARK  164  A    between atoms: _392  and  _395
REMARK  165  A    between atoms: _395  and  _396
REMARK  166  A    between atoms: _396  and  _397
REMARK  167  A    between atoms: _397  and  _398
REMARK  168  A    between atoms: _398  and  _399
REMARK  169  A    between atoms: _403  and  _405
REMARK  170  A    between atoms: _405  and  _406
REMARK  171  A    between atoms: _405  and  _408
REMARK  172  A    between atoms: _408  and  _409
REMARK  173  A    between atoms: _409  and  _410
REMARK  174  A    between atoms: _412  and  _414
REMARK  175  A    between atoms: _414  and  _415
REMARK  176  A    between atoms: _414  and  _417
REMARK  177  A    between atoms: _417  and  _418
REMARK  178  A    between atoms: _421  and  _423
REMARK  179  A    between atoms: _423  and  _424
REMARK  180  A    between atoms: _426  and  _428
REMARK  181  A    between atoms: _428  and  _429
REMARK  182  A    between atoms: _431  and  _433
REMARK  183  A    between atoms: _433  and  _434
REMARK  184  A    between atoms: _433  and  _436
REMARK  185  A    between atoms: _436  and  _437
REMARK  186  A    between atoms: _440  and  _442
REMARK  187  A    between atoms: _442  and  _443
REMARK  188  A    between atoms: _445  and  _447
REMARK  189  A    between atoms: _447  and  _448
REMARK  190  A    between atoms: _450  and  _452
REMARK  191  A    between atoms: _452  and  _453
REMARK  192  A    between atoms: _452  and  _455
REMARK  193  A    between atoms: _455  and  _456
REMARK  194  A    between atoms: _462  and  _464
REMARK  195  A    between atoms: _464  and  _465
REMARK  196  A    between atoms: _464  and  _467
REMARK  197  A    between atoms: _467  and  _468
REMARK  198  A    between atoms: _471  and  _473
REMARK  199  A    between atoms: _473  and  _474
REMARK  200  A    between atoms: _473  and  _476
REMARK  201  A    between atoms: _479  and  _481
REMARK  202  A    between atoms: _481  and  _482
REMARK  203  A    between atoms: _481  and  _484
REMARK  204  A    between atoms: _484  and  _485
REMARK  205  A    between atoms: _489  and  _490
REMARK  206  A    between atoms: _495  and  _497
REMARK  207  A    between atoms: _497  and  _498
REMARK  208  A    between atoms: _497  and  _500
REMARK  209  A    between atoms: _500  and  _501
REMARK  210  A    between atoms: _505  and  _506
REMARK  211  A    between atoms: _511  and  _513
REMARK  212  A    between atoms: _513  and  _514
REMARK  213  A    between atoms: _513  and  _516
REMARK  214  A    between atoms: _519  and  _521
REMARK  215  A    between atoms: _521  and  _522
REMARK  216  A    between atoms: _521  and  _524
REMARK  217  A    between atoms: _524  and  _525
REMARK  218  A    between atoms: _530  and  _532
REMARK  219  A    between atoms: _532  and  _533
REMARK  220  A    between atoms: _532  and  _535
REMARK  221  A    between atoms: _535  and  _536
REMARK  222  A    between atoms: _539  and  _541
REMARK  223  A    between atoms: _541  and  _542
REMARK  224  A    between atoms: _541  and  _544
REMARK  225  A    between atoms: _544  and  _545
REMARK  226  A    between atoms: _548  and  _550
REMARK  227  A    between atoms: _550  and  _551
REMARK  228  A    between atoms: _553  and  _555
REMARK  229  A    between atoms: _555  and  _556
REMARK  230  A    between atoms: _555  and  _558
REMARK  231  A    between atoms: _558  and  _559
REMARK  232  A    between atoms: _559  and  _560
REMARK  233  A    between atoms: _560  and  _561
REMARK                            x       y       z     vdW  Elec       q    Type
REMARK                         _______ _______ _______ _____ _____    ______ ____
ROOT
ATOM      1  O   HOH     1       5.285  20.658   5.149  0.00  0.00    +0.000 OA
ENDROOT
TORSDOF 0
REMARK  Name = ../refined-set-2016/1ec1/1ec1_pocket.pdb
REMARK  233 active torsions:
REMARK  status: ('A' for Active; 'I' for Inactive)
REMARK    1  A    between atoms: _1  and  _3
REMARK    2  A    between atoms: _3  and  _4
REMARK    3  A    between atoms: _3  and  _6
REMARK    4  A    between atoms: _6  and  _7
REMARK    5  A    between atoms: _7  and  _8
REMARK    6  A    between atoms: _8  and  _9
REMARK    7  A    between atoms: _18  and  _20
REMARK    8  A    between atoms: _20  and  _21
REMARK    9  A    between atoms: _20  and  _23
REMARK   10  A    between atoms: _23  and  _24
REMARK   11  A    between atoms: _27  and  _29
REMARK   12  A    between atoms: _29  and  _30
REMARK   13  A    between atoms: _29  and  _32
REMARK   14  A    between atoms: _32  and  _33
REMARK   15  A    between atoms: _36  and  _38
REMARK   16  A    between atoms: _38  and  _39
REMARK   17  A    between atoms: _38  and  _41
REMARK   18  A    between atoms: _41  and  _42
REMARK   19  A    between atoms: _45  and  _47
REMARK   20  A    between atoms: _47  and  _48
REMARK   21  A    between atoms: _47  and  _50
REMARK   22  A    between atoms: _50  and  _51
REMARK   23  A    between atoms: _54  and  _56
REMARK   24  A    between atoms: _56  and  _57
REMARK   25  A    between atoms: _56  and  _59
REMARK   26  A    between atoms: _59  and  _60
REMARK   27  A    between atoms: _63  and  _65
REMARK   28  A    between atoms: _65  and  _66
REMARK   29  A    between atoms: _68  and  _70
REMARK   30  A    between atoms: _70  and  _71
REMARK   31  A    between atoms: _74  and  _76
REMARK   32  A    between atoms: _76  and  _77
REMARK   33  A    between atoms: _76  and  _79
REMARK   34  A    between atoms: _79  and  _80
REMARK   35  A    between atoms: _83  and  _85
REMARK   36  A    between atoms: _85  and  _86
REMARK   37  A    between atoms: _85  and  _88
REMARK   38  A    between atoms: _88  and  _89
REMARK   39  A    between atoms: _92  and  _94
REMARK   40  A    between atoms: _94  and  _95
REMARK   41  A    between atoms: _94  and  _97
REMARK   42  A    between atoms: _97  and  _98
REMARK   43  A    between atoms: _101  and  _103
REMARK   44  A    between atoms: _103  and  _104
REMARK   45  A    between atoms: _103  and  _106
REMARK   46  A    between atoms: _109  and  _111
REMARK   47  A    between atoms: _111  and  _112
REMARK   48  A    between atoms: _111  and  _114
REMARK   49  A    between atoms: _114  and  _115
REMARK   50  A    between atoms: _115  and  _116
REMARK   51  A    between atoms: _116  and  _117
REMARK   52  A    between atoms: _117  and  _118
REMARK   53  A    between atoms: _122  and  _124
REMARK   54  A    between atoms: _124  and  _125
REMARK   55  A    between atoms: _124  and  _127
REMARK   56  A    between atoms: _127  and  _128
REMARK   57  A    between atoms: _128  and  _129
REMARK   58  A    between atoms: _131  and  _133
REMARK   59  A    between atoms: _133  and  _134
REMARK   60  A    between atoms: _133  and  _136
REMARK   61  A    between atoms: _136  and  _137
REMARK   62  A    between atoms: _140  and  _142
REMARK   63  A    between atoms: _142  and  _143
REMARK   64  A    between atoms: _145  and  _147
REMARK   65  A    between atoms: _147  and  _148
REMARK   66  A    between atoms: _150  and  _152
REMARK   67  A    between atoms: _152  and  _153
REMARK   68  A    between atoms: _152  and  _155
REMARK   69  A    between atoms: _155  and  _156
REMARK   70  A    between atoms: _159  and  _161
REMARK   71  A    between atoms: _161  and  _162
REMARK   72  A    between atoms: _164  and  _166
REMARK   73  A    between atoms: _166  and  _167
REMARK   74  A    between atoms: _169  and  _171
REMARK   75  A    between atoms: _171  and  _172
REMARK   76  A    between atoms: _171  and  _174
REMARK   77  A    between atoms: _174  and  _175
REMARK   78  A    between atoms: _181  and  _183
REMARK   79  A    between atoms: _183  and  _184
REMARK   80  A    between atoms: _183  and  _186
REMARK   81  A    between atoms: _186  and  _187
REMARK   82  A    between atoms: _190  and  _192
REMARK   83  A    between atoms: _192  and  _193
REMARK   84  A    between atoms: _192  and  _195
REMARK   85  A    between atoms: _198  and  _200
REMARK   86  A    between atoms: _200  and  _201
REMARK   87  A    between atoms: _200  and  _203
REMARK   88  A    between atoms: _203  and  _204
REMARK   89  A    between atoms: _207  and  _209
REMARK   90  A    between atoms: _209  and  _210
REMARK   91  A    between atoms: _209  and  _212
REMARK   92  A    between atoms: _212  and  _213
REMARK   93  A    between atoms: _217  and  _218
REMARK   94  A    between atoms: _223  and  _225
REMARK   95  A    between atoms: _225  and  _226
REMARK   96  A    between atoms: _225  and  _228
REMARK   97  A    between atoms: _231  and  _233
REMARK   98  A    between atoms: _233  and  _234
REMARK   99  A    between atoms: _233  and  _236
REMARK  100  A    between atoms: _236  and  _237
REMARK  101  A    between atoms: _242  and  _244
REMARK  102  A    between atoms: _244  and  _245
REMARK  103  A    between atoms: _244  and  _247
REMARK  104  A    between atoms: _247  and  _248
REMARK  105  A    between atoms: _251  and  _253
REMARK  106  A    between atoms: _253  and  _254
REMARK  107  A    between atoms: _253  and  _256
REMARK  108  A    between atoms: _256  and  _257
REMARK  109  A    between atoms: _260  and  _262
REMARK  110  A    between atoms: _262  and  _263
REMARK  111  A    between atoms: _265  and  _267
REMARK  112  A    between atoms: _267  and  _268
REMARK  113  A    between atoms: _267  and  _270
REMARK  114  A    between atoms: _270  and  _271
REMARK  115  A    between atoms: _271  and  _272
REMARK  116  A    between atoms: _272  and  _273
REMARK  117  A    between atoms: _282  and  _284
REMARK  118  A    between atoms: _284  and  _285
REMARK  119  A    between atoms: _284  and  _287
REMARK  120  A    between atoms: _287  and  _288
REMARK  121  A    between atoms: _288  and  _289
REMARK  122  A    between atoms: _289  and  _290
REMARK  123  A    between atoms: _299  and  _301
REMARK  124  A    between atoms: _301  and  _302
REMARK  125  A    between atoms: _301  and  _304
REMARK  126  A    between atoms: _304  and  _305
REMARK  127  A    between atoms: _308  and  _310
REMARK  128  A    between atoms: _310  and  _311
REMARK  129  A    between atoms: _310  and  _313
REMARK  130  A    between atoms: _313  and  _314
REMARK  131  A    between atoms: _317  and  _319
REMARK  132  A    between atoms: _319  and  _320
REMARK  133  A    between atoms: _319  and  _322
REMARK  134  A    between atoms: _322  and  _323
REMARK  135  A    between atoms: _326  and  _328
REMARK  136  A    between atoms: _328  and  _329
REMARK  137  A    between atoms: _328  and  _331
REMARK  138  A    between atoms: _331  and  _332
REMARK  139  A    between atoms: _335  and  _337
REMARK  140  A    between atoms: _337  and  _338
REMARK  141  A    between atoms: _337  and  _340
REMARK  142  A    between atoms: _340  and  _341
REMARK  143  A    between atoms: _344  and  _346
REMARK  144  A    between atoms: _346  and  _347
REMARK  145  A    between atoms: _349  and  _351
REMARK  146  A    between atoms: _351  and  _352
REMARK  147  A    between atoms: _355  and  _357
REMARK  148  A    between atoms: _357  and  _358
REMARK  149  A    between atoms: _357  and  _360
REMARK  150  A    between atoms: _360  and  _361
REMARK  151  A    between atoms: _364  and  _366
REMARK  152  A    between atoms: _366  and  _367
REMARK  153  A    between atoms: _366  and  _369
REMARK  154  A    between atoms: _369  and  _370
REMARK  155  A    between atoms: _373  and  _375
REMARK  156  A    between atoms: _375  and  _376
REMARK  157  A    between atoms: _375  and  _378
REMARK  158  A    between atoms: _378  and  _379
REMARK  159  A    between atoms: _382  and  _384
REMARK  160  A    between atoms: _384  and  _385
REMARK  161  A    between atoms: _384  and  _387
REMARK  162  A    between atoms: _390  and  _392
REMARK  163  A    between atoms: _392  and  _393
REMARK  164  A    between atoms: _392  and  _395
REMARK  165  A    between atoms: _395  and  _396
REMARK  166  A    between atoms: _396  and  _397
REMARK  167  A    between atoms: _397  and  _398
REMARK  168  A    between atoms: _398  and  _399
REMARK  169  A    between atoms: _403  and  _405
REMARK  170  A    between atoms: _405  and  _406
REMARK  171  A    between atoms: _405  and  _408
REMARK  172  A    between atoms: _408  and  _409
REMARK  173  A    between atoms: _409  and  _410
REMARK  174  A    between atoms: _412  and  _414
REMARK  175  A    between atoms: _414  and  _415
REMARK  176  A    between atoms: _414  and  _417
REMARK  177  A    between atoms: _417  and  _418
REMARK  178  A    between atoms: _421  and  _423
REMARK  179  A    between atoms: _423  and  _424
REMARK  180  A    between atoms: _426  and  _428
REMARK  181  A    between atoms: _428  and  _429
REMARK  182  A    between atoms: _431  and  _433
REMARK  183  A    between atoms: _433  and  _434
REMARK  184  A    between atoms: _433  and  _436
REMARK  185  A    between atoms: _436  and  _437
REMARK  186  A    between atoms: _440  and  _442
REMARK  187  A    between atoms: _442  and  _443
REMARK  188  A    between atoms: _445  and  _447
REMARK  189  A    between atoms: _447  and  _448
REMARK  190  A    between atoms: _450  and  _452
REMARK  191  A    between atoms: _452  and  _453
REMARK  192  A    between atoms: _452  and  _455
REMARK  193  A    between atoms: _455  and  _456
REMARK  194  A    between atoms: _462  and  _464
REMARK  195  A    between atoms: _464  and  _465
REMARK  196  A    between atoms: _464  and  _467
REMARK  197  A    between atoms: _467  and  _468
REMARK  198  A    between atoms: _471  and  _473
REMARK  199  A    between atoms: _473  and  _474
REMARK  200  A    between atoms: _473  and  _476
REMARK  201  A    between atoms: _479  and  _481
REMARK  202  A    between atoms: _481  and  _482
REMARK  203  A    between atoms: _481  and  _484
REMARK  204  A    between atoms: _484  and  _485
REMARK  205  A    between atoms: _489  and  _490
REMARK  206  A    between atoms: _495  and  _497
REMARK  207  A    between atoms: _497  and  _498
REMARK  208  A    between atoms: _497  and  _500
REMARK  209  A    between atoms: _500  and  _501
REMARK  210  A    between atoms: _505  and  _506
REMARK  211  A    between atoms: _511  and  _513
REMARK  212  A    between atoms: _513  and  _514
REMARK  213  A    between atoms: _513  and  _516
REMARK  214  A    between atoms: _519  and  _521
REMARK  215  A    between atoms: _521  and  _522
REMARK  216  A    between atoms: _521  and  _524
REMARK  217  A    between atoms: _524  and  _525
REMARK  218  A    between atoms: _530  and  _532
REMARK  219  A    between atoms: _532  and  _533
REMARK  220  A    between atoms: _532  and  _535
REMARK  221  A    between atoms: _535  and  _536
REMARK  222  A    between atoms: _539  and  _541
REMARK  223  A    between atoms: _541  and  _542
REMARK  224  A    between atoms: _541  and  _544
REMARK  225  A    between atoms: _544  and  _545
REMARK  226  A    between atoms: _548  and  _550
REMARK  227  A    between atoms: _550  and  _551
REMARK  228  A    between atoms: _553  and  _555
REMARK  229  A    between atoms: _555  and  _556
REMARK  230  A    between atoms: _555  and  _558
REMARK  231  A    between atoms: _558  and  _559
REMARK  232  A    between atoms: _559  and  _560
REMARK  233  A    between atoms: _560  and  _561
REMARK                            x       y       z     vdW  Elec       q    Type
REMARK                         _______ _______ _______ _____ _____    ______ ____
ROOT
ATOM      1  O   HOH     1      20.547  22.098   6.291  0.00  0.00    +0.000 OA
ENDROOT
TORSDOF 0
REMARK  Name = ../refined-set-2016/1ec1/1ec1_pocket.pdb
REMARK  233 active torsions:
REMARK  status: ('A' for Active; 'I' for Inactive)
REMARK    1  A    between atoms: _1  and  _3
REMARK    2  A    between atoms: _3  and  _4
REMARK    3  A    between atoms: _3  and  _6
REMARK    4  A    between atoms: _6  and  _7
REMARK    5  A    between atoms: _7  and  _8
REMARK    6  A    between atoms: _8  and  _9
REMARK    7  A    between atoms: _18  and  _20
REMARK    8  A    between atoms: _20  and  _21
REMARK    9  A    between atoms: _20  and  _23
REMARK   10  A    between atoms: _23  and  _24
REMARK   11  A    between atoms: _27  and  _29
REMARK   12  A    between atoms: _29  and  _30
REMARK   13  A    between atoms: _29  and  _32
REMARK   14  A    between atoms: _32  and  _33
REMARK   15  A    between atoms: _36  and  _38
REMARK   16  A    between atoms: _38  and  _39
REMARK   17  A    between atoms: _38  and  _41
REMARK   18  A    between atoms: _41  and  _42
REMARK   19  A    between atoms: _45  and  _47
REMARK   20  A    between atoms: _47  and  _48
REMARK   21  A    between atoms: _47  and  _50
REMARK   22  A    between atoms: _50  and  _51
REMARK   23  A    between atoms: _54  and  _56
REMARK   24  A    between atoms: _56  and  _57
REMARK   25  A    between atoms: _56  and  _59
REMARK   26  A    between atoms: _59  and  _60
REMARK   27  A    between atoms: _63  and  _65
REMARK   28  A    between atoms: _65  and  _66
REMARK   29  A    between atoms: _68  and  _70
REMARK   30  A    between atoms: _70  and  _71
REMARK   31  A    between atoms: _74  and  _76
REMARK   32  A    between atoms: _76  and  _77
REMARK   33  A    between atoms: _76  and  _79
REMARK   34  A    between atoms: _79  and  _80
REMARK   35  A    between atoms: _83  and  _85
REMARK   36  A    between atoms: _85  and  _86
REMARK   37  A    between atoms: _85  and  _88
REMARK   38  A    between atoms: _88  and  _89
REMARK   39  A    between atoms: _92  and  _94
REMARK   40  A    between atoms: _94  and  _95
REMARK   41  A    between atoms: _94  and  _97
REMARK   42  A    between atoms: _97  and  _98
REMARK   43  A    between atoms: _101  and  _103
REMARK   44  A    between atoms: _103  and  _104
REMARK   45  A    between atoms: _103  and  _106
REMARK   46  A    between atoms: _109  and  _111
REMARK   47  A    between atoms: _111  and  _112
REMARK   48  A    between atoms: _111  and  _114
REMARK   49  A    between atoms: _114  and  _115
REMARK   50  A    between atoms: _115  and  _116
REMARK   51  A    between atoms: _116  and  _117
REMARK   52  A    between atoms: _117  and  _118
REMARK   53  A    between atoms: _122  and  _124
REMARK   54  A    between atoms: _124  and  _125
REMARK   55  A    between atoms: _124  and  _127
REMARK   56  A    between atoms: _127  and  _128
REMARK   57  A    between atoms: _128  and  _129
REMARK   58  A    between atoms: _131  and  _133
REMARK   59  A    between atoms: _133  and  _134
REMARK   60  A    between atoms: _133  and  _136
REMARK   61  A    between atoms: _136  and  _137
REMARK   62  A    between atoms: _140  and  _142
REMARK   63  A    between atoms: _142  and  _143
REMARK   64  A    between atoms: _145  and  _147
REMARK   65  A    between atoms: _147  and  _148
REMARK   66  A    between atoms: _150  and  _152
REMARK   67  A    between atoms: _152  and  _153
REMARK   68  A    between atoms: _152  and  _155
REMARK   69  A    between atoms: _155  and  _156
REMARK   70  A    between atoms: _159  and  _161
REMARK   71  A    between atoms: _161  and  _162
REMARK   72  A    between atoms: _164  and  _166
REMARK   73  A    between atoms: _166  and  _167
REMARK   74  A    between atoms: _169  and  _171
REMARK   75  A    between atoms: _171  and  _172
REMARK   76  A    between atoms: _171  and  _174
REMARK   77  A    between atoms: _174  and  _175
REMARK   78  A    between atoms: _181  and  _183
REMARK   79  A    between atoms: _183  and  _184
REMARK   80  A    between atoms: _183  and  _186
REMARK   81  A    between atoms: _186  and  _187
REMARK   82  A    between atoms: _190  and  _192
REMARK   83  A    between atoms: _192  and  _193
REMARK   84  A    between atoms: _192  and  _195
REMARK   85  A    between atoms: _198  and  _200
REMARK   86  A    between atoms: _200  and  _201
REMARK   87  A    between atoms: _200  and  _203
REMARK   88  A    between atoms: _203  and  _204
REMARK   89  A    between atoms: _207  and  _209
REMARK   90  A    between atoms: _209  and  _210
REMARK   91  A    between atoms: _209  and  _212
REMARK   92  A    between atoms: _212  and  _213
REMARK   93  A    between atoms: _217  and  _218
REMARK   94  A    between atoms: _223  and  _225
REMARK   95  A    between atoms: _225  and  _226
REMARK   96  A    between atoms: _225  and  _228
REMARK   97  A    between atoms: _231  and  _233
REMARK   98  A    between atoms: _233  and  _234
REMARK   99  A    between atoms: _233  and  _236
REMARK  100  A    between atoms: _236  and  _237
REMARK  101  A    between atoms: _242  and  _244
REMARK  102  A    between atoms: _244  and  _245
REMARK  103  A    between atoms: _244  and  _247
REMARK  104  A    between atoms: _247  and  _248
REMARK  105  A    between atoms: _251  and  _253
REMARK  106  A    between atoms: _253  and  _254
REMARK  107  A    between atoms: _253  and  _256
REMARK  108  A    between atoms: _256  and  _257
REMARK  109  A    between atoms: _260  and  _262
REMARK  110  A    between atoms: _262  and  _263
REMARK  111  A    between atoms: _265  and  _267
REMARK  112  A    between atoms: _267  and  _268
REMARK  113  A    between atoms: _267  and  _270
REMARK  114  A    between atoms: _270  and  _271
REMARK  115  A    between atoms: _271  and  _272
REMARK  116  A    between atoms: _272  and  _273
REMARK  117  A    between atoms: _282  and  _284
REMARK  118  A    between atoms: _284  and  _285
REMARK  119  A    between atoms: _284  and  _287
REMARK  120  A    between atoms: _287  and  _288
REMARK  121  A    between atoms: _288  and  _289
REMARK  122  A    between atoms: _289  and  _290
REMARK  123  A    between atoms: _299  and  _301
REMARK  124  A    between atoms: _301  and  _302
REMARK  125  A    between atoms: _301  and  _304
REMARK  126  A    between atoms: _304  and  _305
REMARK  127  A    between atoms: _308  and  _310
REMARK  128  A    between atoms: _310  and  _311
REMARK  129  A    between atoms: _310  and  _313
REMARK  130  A    between atoms: _313  and  _314
REMARK  131  A    between atoms: _317  and  _319
REMARK  132  A    between atoms: _319  and  _320
REMARK  133  A    between atoms: _319  and  _322
REMARK  134  A    between atoms: _322  and  _323
REMARK  135  A    between atoms: _326  and  _328
REMARK  136  A    between atoms: _328  and  _329
REMARK  137  A    between atoms: _328  and  _331
REMARK  138  A    between atoms: _331  and  _332
REMARK  139  A    between atoms: _335  and  _337
REMARK  140  A    between atoms: _337  and  _338
REMARK  141  A    between atoms: _337  and  _340
REMARK  142  A    between atoms: _340  and  _341
REMARK  143  A    between atoms: _344  and  _346
REMARK  144  A    between atoms: _346  and  _347
REMARK  145  A    between atoms: _349  and  _351
REMARK  146  A    between atoms: _351  and  _352
REMARK  147  A    between atoms: _355  and  _357
REMARK  148  A    between atoms: _357  and  _358
REMARK  149  A    between atoms: _357  and  _360
REMARK  150  A    between atoms: _360  and  _361
REMARK  151  A    between atoms: _364  and  _366
REMARK  152  A    between atoms: _366  and  _367
REMARK  153  A    between atoms: _366  and  _369
REMARK  154  A    between atoms: _369  and  _370
REMARK  155  A    between atoms: _373  and  _375
REMARK  156  A    between atoms: _375  and  _376
REMARK  157  A    between atoms: _375  and  _378
REMARK  158  A    between atoms: _378  and  _379
REMARK  159  A    between atoms: _382  and  _384
REMARK  160  A    between atoms: _384  and  _385
REMARK  161  A    between atoms: _384  and  _387
REMARK  162  A    between atoms: _390  and  _392
REMARK  163  A    between atoms: _392  and  _393
REMARK  164  A    between atoms: _392  and  _395
REMARK  165  A    between atoms: _395  and  _396
REMARK  166  A    between atoms: _396  and  _397
REMARK  167  A    between atoms: _397  and  _398
REMARK  168  A    between atoms: _398  and  _399
REMARK  169  A    between atoms: _403  and  _405
REMARK  170  A    between atoms: _405  and  _406
REMARK  171  A    between atoms: _405  and  _408
REMARK  172  A    between atoms: _408  and  _409
REMARK  173  A    between atoms: _409  and  _410
REMARK  174  A    between atoms: _412  and  _414
REMARK  175  A    between atoms: _414  and  _415
REMARK  176  A    between atoms: _414  and  _417
REMARK  177  A    between atoms: _417  and  _418
REMARK  178  A    between atoms: _421  and  _423
REMARK  179  A    between atoms: _423  and  _424
REMARK  180  A    between atoms: _426  and  _428
REMARK  181  A    between atoms: _428  and  _429
REMARK  182  A    between atoms: _431  and  _433
REMARK  183  A    between atoms: _433  and  _434
REMARK  184  A    between atoms: _433  and  _436
REMARK  185  A    between atoms: _436  and  _437
REMARK  186  A    between atoms: _440  and  _442
REMARK  187  A    between atoms: _442  and  _443
REMARK  188  A    between atoms: _445  and  _447
REMARK  189  A    between atoms: _447  and  _448
REMARK  190  A    between atoms: _450  and  _452
REMARK  191  A    between atoms: _452  and  _453
REMARK  192  A    between atoms: _452  and  _455
REMARK  193  A    between atoms: _455  and  _456
REMARK  194  A    between atoms: _462  and  _464
REMARK  195  A    between atoms: _464  and  _465
REMARK  196  A    between atoms: _464  and  _467
REMARK  197  A    between atoms: _467  and  _468
REMARK  198  A    between atoms: _471  and  _473
REMARK  199  A    between atoms: _473  and  _474
REMARK  200  A    between atoms: _473  and  _476
REMARK  201  A    between atoms: _479  and  _481
REMARK  202  A    between atoms: _481  and  _482
REMARK  203  A    between atoms: _481  and  _484
REMARK  204  A    between atoms: _484  and  _485
REMARK  205  A    between atoms: _489  and  _490
REMARK  206  A    between atoms: _495  and  _497
REMARK  207  A    between atoms: _497  and  _498
REMARK  208  A    between atoms: _497  and  _500
REMARK  209  A    between atoms: _500  and  _501
REMARK  210  A    between atoms: _505  and  _506
REMARK  211  A    between atoms: _511  and  _513
REMARK  212  A    between atoms: _513  and  _514
REMARK  213  A    between atoms: _513  and  _516
REMARK  214  A    between atoms: _519  and  _521
REMARK  215  A    between atoms: _521  and  _522
REMARK  216  A    between atoms: _521  and  _524
REMARK  217  A    between atoms: _524  and  _525
REMARK  218  A    between atoms: _530  and  _532
REMARK  219  A    between atoms: _532  and  _533
REMARK  220  A    between atoms: _532  and  _535
REMARK  221  A    between atoms: _535  and  _536
REMARK  222  A    between atoms: _539  and  _541
REMARK  223  A    between atoms: _541  and  _542
REMARK  224  A    between atoms: _541  and  _544
REMARK  225  A    between atoms: _544  and  _545
REMARK  226  A    between atoms: _548  and  _550
REMARK  227  A    between atoms: _550  and  _551
REMARK  228  A    between atoms: _553  and  _555
REMARK  229  A    between atoms: _555  and  _556
REMARK  230  A    between atoms: _555  and  _558
REMARK  231  A    between atoms: _558  and  _559
REMARK  232  A    between atoms: _559  and  _560
REMARK  233  A    between atoms: _560  and  _561
REMARK                            x       y       z     vdW  Elec       q    Type
REMARK                         _______ _______ _______ _____ _____    ______ ____
ROOT
ATOM      1  O   HOH     1       3.079  26.778  -0.252  0.00  0.00    +0.000 OA
ENDROOT
TORSDOF 0
REMARK  Name = ../refined-set-2016/1ec1/1ec1_pocket.pdb
REMARK  233 active torsions:
REMARK  status: ('A' for Active; 'I' for Inactive)
REMARK    1  A    between atoms: _1  and  _3
REMARK    2  A    between atoms: _3  and  _4
REMARK    3  A    between atoms: _3  and  _6
REMARK    4  A    between atoms: _6  and  _7
REMARK    5  A    between atoms: _7  and  _8
REMARK    6  A    between atoms: _8  and  _9
REMARK    7  A    between atoms: _18  and  _20
REMARK    8  A    between atoms: _20  and  _21
REMARK    9  A    between atoms: _20  and  _23
REMARK   10  A    between atoms: _23  and  _24
REMARK   11  A    between atoms: _27  and  _29
REMARK   12  A    between atoms: _29  and  _30
REMARK   13  A    between atoms: _29  and  _32
REMARK   14  A    between atoms: _32  and  _33
REMARK   15  A    between atoms: _36  and  _38
REMARK   16  A    between atoms: _38  and  _39
REMARK   17  A    between atoms: _38  and  _41
REMARK   18  A    between atoms: _41  and  _42
REMARK   19  A    between atoms: _45  and  _47
REMARK   20  A    between atoms: _47  and  _48
REMARK   21  A    between atoms: _47  and  _50
REMARK   22  A    between atoms: _50  and  _51
REMARK   23  A    between atoms: _54  and  _56
REMARK   24  A    between atoms: _56  and  _57
REMARK   25  A    between atoms: _56  and  _59
REMARK   26  A    between atoms: _59  and  _60
REMARK   27  A    between atoms: _63  and  _65
REMARK   28  A    between atoms: _65  and  _66
REMARK   29  A    between atoms: _68  and  _70
REMARK   30  A    between atoms: _70  and  _71
REMARK   31  A    between atoms: _74  and  _76
REMARK   32  A    between atoms: _76  and  _77
REMARK   33  A    between atoms: _76  and  _79
REMARK   34  A    between atoms: _79  and  _80
REMARK   35  A    between atoms: _83  and  _85
REMARK   36  A    between atoms: _85  and  _86
REMARK   37  A    between atoms: _85  and  _88
REMARK   38  A    between atoms: _88  and  _89
REMARK   39  A    between atoms: _92  and  _94
REMARK   40  A    between atoms: _94  and  _95
REMARK   41  A    between atoms: _94  and  _97
REMARK   42  A    between atoms: _97  and  _98
REMARK   43  A    between atoms: _101  and  _103
REMARK   44  A    between atoms: _103  and  _104
REMARK   45  A    between atoms: _103  and  _106
REMARK   46  A    between atoms: _109  and  _111
REMARK   47  A    between atoms: _111  and  _112
REMARK   48  A    between atoms: _111  and  _114
REMARK   49  A    between atoms: _114  and  _115
REMARK   50  A    between atoms: _115  and  _116
REMARK   51  A    between atoms: _116  and  _117
REMARK   52  A    between atoms: _117  and  _118
REMARK   53  A    between atoms: _122  and  _124
REMARK   54  A    between atoms: _124  and  _125
REMARK   55  A    between atoms: _124  and  _127
REMARK   56  A    between atoms: _127  and  _128
REMARK   57  A    between atoms: _128  and  _129
REMARK   58  A    between atoms: _131  and  _133
REMARK   59  A    between atoms: _133  and  _134
REMARK   60  A    between atoms: _133  and  _136
REMARK   61  A    between atoms: _136  and  _137
REMARK   62  A    between atoms: _140  and  _142
REMARK   63  A    between atoms: _142  and  _143
REMARK   64  A    between atoms: _145  and  _147
REMARK   65  A    between atoms: _147  and  _148
REMARK   66  A    between atoms: _150  and  _152
REMARK   67  A    between atoms: _152  and  _153
REMARK   68  A    between atoms: _152  and  _155
REMARK   69  A    between atoms: _155  and  _156
REMARK   70  A    between atoms: _159  and  _161
REMARK   71  A    between atoms: _161  and  _162
REMARK   72  A    between atoms: _164  and  _166
REMARK   73  A    between atoms: _166  and  _167
REMARK   74  A    between atoms: _169  and  _171
REMARK   75  A    between atoms: _171  and  _172
REMARK   76  A    between atoms: _171  and  _174
REMARK   77  A    between atoms: _174  and  _175
REMARK   78  A    between atoms: _181  and  _183
REMARK   79  A    between atoms: _183  and  _184
REMARK   80  A    between atoms: _183  and  _186
REMARK   81  A    between atoms: _186  and  _187
REMARK   82  A    between atoms: _190  and  _192
REMARK   83  A    between atoms: _192  and  _193
REMARK   84  A    between atoms: _192  and  _195
REMARK   85  A    between atoms: _198  and  _200
REMARK   86  A    between atoms: _200  and  _201
REMARK   87  A    between atoms: _200  and  _203
REMARK   88  A    between atoms: _203  and  _204
REMARK   89  A    between atoms: _207  and  _209
REMARK   90  A    between atoms: _209  and  _210
REMARK   91  A    between atoms: _209  and  _212
REMARK   92  A    between atoms: _212  and  _213
REMARK   93  A    between atoms: _217  and  _218
REMARK   94  A    between atoms: _223  and  _225
REMARK   95  A    between atoms: _225  and  _226
REMARK   96  A    between atoms: _225  and  _228
REMARK   97  A    between atoms: _231  and  _233
REMARK   98  A    between atoms: _233  and  _234
REMARK   99  A    between atoms: _233  and  _236
REMARK  100  A    between atoms: _236  and  _237
REMARK  101  A    between atoms: _242  and  _244
REMARK  102  A    between atoms: _244  and  _245
REMARK  103  A    between atoms: _244  and  _247
REMARK  104  A    between atoms: _247  and  _248
REMARK  105  A    between atoms: _251  and  _253
REMARK  106  A    between atoms: _253  and  _254
REMARK  107  A    between atoms: _253  and  _256
REMARK  108  A    between atoms: _256  and  _257
REMARK  109  A    between atoms: _260  and  _262
REMARK  110  A    between atoms: _262  and  _263
REMARK  111  A    between atoms: _265  and  _267
REMARK  112  A    between atoms: _267  and  _268
REMARK  113  A    between atoms: _267  and  _270
REMARK  114  A    between atoms: _270  and  _271
REMARK  115  A    between atoms: _271  and  _272
REMARK  116  A    between atoms: _272  and  _273
REMARK  117  A    between atoms: _282  and  _284
REMARK  118  A    between atoms: _284  and  _285
REMARK  119  A    between atoms: _284  and  _287
REMARK  120  A    between atoms: _287  and  _288
REMARK  121  A    between atoms: _288  and  _289
REMARK  122  A    between atoms: _289  and  _290
REMARK  123  A    between atoms: _299  and  _301
REMARK  124  A    between atoms: _301  and  _302
REMARK  125  A    between atoms: _301  and  _304
REMARK  126  A    between atoms: _304  and  _305
REMARK  127  A    between atoms: _308  and  _310
REMARK  128  A    between atoms: _310  and  _311
REMARK  129  A    between atoms: _310  and  _313
REMARK  130  A    between atoms: _313  and  _314
REMARK  131  A    between atoms: _317  and  _319
REMARK  132  A    between atoms: _319  and  _320
REMARK  133  A    between atoms: _319  and  _322
REMARK  134  A    between atoms: _322  and  _323
REMARK  135  A    between atoms: _326  and  _328
REMARK  136  A    between atoms: _328  and  _329
REMARK  137  A    between atoms: _328  and  _331
REMARK  138  A    between atoms: _331  and  _332
REMARK  139  A    between atoms: _335  and  _337
REMARK  140  A    between atoms: _337  and  _338
REMARK  141  A    between atoms: _337  and  _340
REMARK  142  A    between atoms: _340  and  _341
REMARK  143  A    between atoms: _344  and  _346
REMARK  144  A    between atoms: _346  and  _347
REMARK  145  A    between atoms: _349  and  _351
REMARK  146  A    between atoms: _351  and  _352
REMARK  147  A    between atoms: _355  and  _357
REMARK  148  A    between atoms: _357  and  _358
REMARK  149  A    between atoms: _357  and  _360
REMARK  150  A    between atoms: _360  and  _361
REMARK  151  A    between atoms: _364  and  _366
REMARK  152  A    between atoms: _366  and  _367
REMARK  153  A    between atoms: _366  and  _369
REMARK  154  A    between atoms: _369  and  _370
REMARK  155  A    between atoms: _373  and  _375
REMARK  156  A    between atoms: _375  and  _376
REMARK  157  A    between atoms: _375  and  _378
REMARK  158  A    between atoms: _378  and  _379
REMARK  159  A    between atoms: _382  and  _384
REMARK  160  A    between atoms: _384  and  _385
REMARK  161  A    between atoms: _384  and  _387
REMARK  162  A    between atoms: _390  and  _392
REMARK  163  A    between atoms: _392  and  _393
REMARK  164  A    between atoms: _392  and  _395
REMARK  165  A    between atoms: _395  and  _396
REMARK  166  A    between atoms: _396  and  _397
REMARK  167  A    between atoms: _397  and  _398
REMARK  168  A    between atoms: _398  and  _399
REMARK  169  A    between atoms: _403  and  _405
REMARK  170  A    between atoms: _405  and  _406
REMARK  171  A    between atoms: _405  and  _408
REMARK  172  A    between atoms: _408  and  _409
REMARK  173  A    between atoms: _409  and  _410
REMARK  174  A    between atoms: _412  and  _414
REMARK  175  A    between atoms: _414  and  _415
REMARK  176  A    between atoms: _414  and  _417
REMARK  177  A    between atoms: _417  and  _418
REMARK  178  A    between atoms: _421  and  _423
REMARK  179  A    between atoms: _423  and  _424
REMARK  180  A    between atoms: _426  and  _428
REMARK  181  A    between atoms: _428  and  _429
REMARK  182  A    between atoms: _431  and  _433
REMARK  183  A    between atoms: _433  and  _434
REMARK  184  A    between atoms: _433  and  _436
REMARK  185  A    between atoms: _436  and  _437
REMARK  186  A    between atoms: _440  and  _442
REMARK  187  A    between atoms: _442  and  _443
REMARK  188  A    between atoms: _445  and  _447
REMARK  189  A    between atoms: _447  and  _448
REMARK  190  A    between atoms: _450  and  _452
REMARK  191  A    between atoms: _452  and  _453
REMARK  192  A    between atoms: _452  and  _455
REMARK  193  A    between atoms: _455  and  _456
REMARK  194  A    between atoms: _462  and  _464
REMARK  195  A    between atoms: _464  and  _465
REMARK  196  A    between atoms: _464  and  _467
REMARK  197  A    between atoms: _467  and  _468
REMARK  198  A    between atoms: _471  and  _473
REMARK  199  A    between atoms: _473  and  _474
REMARK  200  A    between atoms: _473  and  _476
REMARK  201  A    between atoms: _479  and  _481
REMARK  202  A    between atoms: _481  and  _482
REMARK  203  A    between atoms: _481  and  _484
REMARK  204  A    between atoms: _484  and  _485
REMARK  205  A    between atoms: _489  and  _490
REMARK  206  A    between atoms: _495  and  _497
REMARK  207  A    between atoms: _497  and  _498
REMARK  208  A    between atoms: _497  and  _500
REMARK  209  A    between atoms: _500  and  _501
REMARK  210  A    between atoms: _505  and  _506
REMARK  211  A    between atoms: _511  and  _513
REMARK  212  A    between atoms: _513  and  _514
REMARK  213  A    between atoms: _513  and  _516
REMARK  214  A    between atoms: _519  and  _521
REMARK  215  A    between atoms: _521  and  _522
REMARK  216  A    between atoms: _521  and  _524
REMARK  217  A    between atoms: _524  and  _525
REMARK  218  A    between atoms: _530  and  _532
REMARK  219  A    between atoms: _532  and  _533
REMARK  220  A    between atoms: _532  and  _535
REMARK  221  A    between atoms: _535  and  _536
REMARK  222  A    between atoms: _539  and  _541
REMARK  223  A    between atoms: _541  and  _542
REMARK  224  A    between atoms: _541  and  _544
REMARK  225  A    between atoms: _544  and  _545
REMARK  226  A    between atoms: _548  and  _550
REMARK  227  A    between atoms: _550  and  _551
REMARK  228  A    between atoms: _553  and  _555
REMARK  229  A    between atoms: _555  and  _556
REMARK  230  A    between atoms: _555  and  _558
REMARK  231  A    between atoms: _558  and  _559
REMARK  232  A    between atoms: _559  and  _560
REMARK  233  A    between atoms: _560  and  _561
REMARK                            x       y       z     vdW  Elec       q    Type
REMARK                         _______ _______ _______ _____ _____    ______ ____
ROOT
ATOM      1  O   HOH     1      20.424  16.094  -3.479  0.00  0.00    +0.000 OA
ENDROOT
TORSDOF 0
REMARK  Name = ../refined-set-2016/1ec1/1ec1_pocket.pdb
REMARK  233 active torsions:
REMARK  status: ('A' for Active; 'I' for Inactive)
REMARK    1  A    between atoms: _1  and  _3
REMARK    2  A    between atoms: _3  and  _4
REMARK    3  A    between atoms: _3  and  _6
REMARK    4  A    between atoms: _6  and  _7
REMARK    5  A    between atoms: _7  and  _8
REMARK    6  A    between atoms: _8  and  _9
REMARK    7  A    between atoms: _18  and  _20
REMARK    8  A    between atoms: _20  and  _21
REMARK    9  A    between atoms: _20  and  _23
REMARK   10  A    between atoms: _23  and  _24
REMARK   11  A    between atoms: _27  and  _29
REMARK   12  A    between atoms: _29  and  _30
REMARK   13  A    between atoms: _29  and  _32
REMARK   14  A    between atoms: _32  and  _33
REMARK   15  A    between atoms: _36  and  _38
REMARK   16  A    between atoms: _38  and  _39
REMARK   17  A    between atoms: _38  and  _41
REMARK   18  A    between atoms: _41  and  _42
REMARK   19  A    between atoms: _45  and  _47
REMARK   20  A    between atoms: _47  and  _48
REMARK   21  A    between atoms: _47  and  _50
REMARK   22  A    between atoms: _50  and  _51
REMARK   23  A    between atoms: _54  and  _56
REMARK   24  A    between atoms: _56  and  _57
REMARK   25  A    between atoms: _56  and  _59
REMARK   26  A    between atoms: _59  and  _60
REMARK   27  A    between atoms: _63  and  _65
REMARK   28  A    between atoms: _65  and  _66
REMARK   29  A    between atoms: _68  and  _70
REMARK   30  A    between atoms: _70  and  _71
REMARK   31  A    between atoms: _74  and  _76
REMARK   32  A    between atoms: _76  and  _77
REMARK   33  A    between atoms: _76  and  _79
REMARK   34  A    between atoms: _79  and  _80
REMARK   35  A    between atoms: _83  and  _85
REMARK   36  A    between atoms: _85  and  _86
REMARK   37  A    between atoms: _85  and  _88
REMARK   38  A    between atoms: _88  and  _89
REMARK   39  A    between atoms: _92  and  _94
REMARK   40  A    between atoms: _94  and  _95
REMARK   41  A    between atoms: _94  and  _97
REMARK   42  A    between atoms: _97  and  _98
REMARK   43  A    between atoms: _101  and  _103
REMARK   44  A    between atoms: _103  and  _104
REMARK   45  A    between atoms: _103  and  _106
REMARK   46  A    between atoms: _109  and  _111
REMARK   47  A    between atoms: _111  and  _112
REMARK   48  A    between atoms: _111  and  _114
REMARK   49  A    between atoms: _114  and  _115
REMARK   50  A    between atoms: _115  and  _116
REMARK   51  A    between atoms: _116  and  _117
REMARK   52  A    between atoms: _117  and  _118
REMARK   53  A    between atoms: _122  and  _124
REMARK   54  A    between atoms: _124  and  _125
REMARK   55  A    between atoms: _124  and  _127
REMARK   56  A    between atoms: _127  and  _128
REMARK   57  A    between atoms: _128  and  _129
REMARK   58  A    between atoms: _131  and  _133
REMARK   59  A    between atoms: _133  and  _134
REMARK   60  A    between atoms: _133  and  _136
REMARK   61  A    between atoms: _136  and  _137
REMARK   62  A    between atoms: _140  and  _142
REMARK   63  A    between atoms: _142  and  _143
REMARK   64  A    between atoms: _145  and  _147
REMARK   65  A    between atoms: _147  and  _148
REMARK   66  A    between atoms: _150  and  _152
REMARK   67  A    between atoms: _152  and  _153
REMARK   68  A    between atoms: _152  and  _155
REMARK   69  A    between atoms: _155  and  _156
REMARK   70  A    between atoms: _159  and  _161
REMARK   71  A    between atoms: _161  and  _162
REMARK   72  A    between atoms: _164  and  _166
REMARK   73  A    between atoms: _166  and  _167
REMARK   74  A    between atoms: _169  and  _171
REMARK   75  A    between atoms: _171  and  _172
REMARK   76  A    between atoms: _171  and  _174
REMARK   77  A    between atoms: _174  and  _175
REMARK   78  A    between atoms: _181  and  _183
REMARK   79  A    between atoms: _183  and  _184
REMARK   80  A    between atoms: _183  and  _186
REMARK   81  A    between atoms: _186  and  _187
REMARK   82  A    between atoms: _190  and  _192
REMARK   83  A    between atoms: _192  and  _193
REMARK   84  A    between atoms: _192  and  _195
REMARK   85  A    between atoms: _198  and  _200
REMARK   86  A    between atoms: _200  and  _201
REMARK   87  A    between atoms: _200  and  _203
REMARK   88  A    between atoms: _203  and  _204
REMARK   89  A    between atoms: _207  and  _209
REMARK   90  A    between atoms: _209  and  _210
REMARK   91  A    between atoms: _209  and  _212
REMARK   92  A    between atoms: _212  and  _213
REMARK   93  A    between atoms: _217  and  _218
REMARK   94  A    between atoms: _223  and  _225
REMARK   95  A    between atoms: _225  and  _226
REMARK   96  A    between atoms: _225  and  _228
REMARK   97  A    between atoms: _231  and  _233
REMARK   98  A    between atoms: _233  and  _234
REMARK   99  A    between atoms: _233  and  _236
REMARK  100  A    between atoms: _236  and  _237
REMARK  101  A    between atoms: _242  and  _244
REMARK  102  A    between atoms: _244  and  _245
REMARK  103  A    between atoms: _244  and  _247
REMARK  104  A    between atoms: _247  and  _248
REMARK  105  A    between atoms: _251  and  _253
REMARK  106  A    between atoms: _253  and  _254
REMARK  107  A    between atoms: _253  and  _256
REMARK  108  A    between atoms: _256  and  _257
REMARK  109  A    between atoms: _260  and  _262
REMARK  110  A    between atoms: _262  and  _263
REMARK  111  A    between atoms: _265  and  _267
REMARK  112  A    between atoms: _267  and  _268
REMARK  113  A    between atoms: _267  and  _270
REMARK  114  A    between atoms: _270  and  _271
REMARK  115  A    between atoms: _271  and  _272
REMARK  116  A    between atoms: _272  and  _273
REMARK  117  A    between atoms: _282  and  _284
REMARK  118  A    between atoms: _284  and  _285
REMARK  119  A    between atoms: _284  and  _287
REMARK  120  A    between atoms: _287  and  _288
REMARK  121  A    between atoms: _288  and  _289
REMARK  122  A    between atoms: _289  and  _290
REMARK  123  A    between atoms: _299  and  _301
REMARK  124  A    between atoms: _301  and  _302
REMARK  125  A    between atoms: _301  and  _304
REMARK  126  A    between atoms: _304  and  _305
REMARK  127  A    between atoms: _308  and  _310
REMARK  128  A    between atoms: _310  and  _311
REMARK  129  A    between atoms: _310  and  _313
REMARK  130  A    between atoms: _313  and  _314
REMARK  131  A    between atoms: _317  and  _319
REMARK  132  A    between atoms: _319  and  _320
REMARK  133  A    between atoms: _319  and  _322
REMARK  134  A    between atoms: _322  and  _323
REMARK  135  A    between atoms: _326  and  _328
REMARK  136  A    between atoms: _328  and  _329
REMARK  137  A    between atoms: _328  and  _331
REMARK  138  A    between atoms: _331  and  _332
REMARK  139  A    between atoms: _335  and  _337
REMARK  140  A    between atoms: _337  and  _338
REMARK  141  A    between atoms: _337  and  _340
REMARK  142  A    between atoms: _340  and  _341
REMARK  143  A    between atoms: _344  and  _346
REMARK  144  A    between atoms: _346  and  _347
REMARK  145  A    between atoms: _349  and  _351
REMARK  146  A    between atoms: _351  and  _352
REMARK  147  A    between atoms: _355  and  _357
REMARK  148  A    between atoms: _357  and  _358
REMARK  149  A    between atoms: _357  and  _360
REMARK  150  A    between atoms: _360  and  _361
REMARK  151  A    between atoms: _364  and  _366
REMARK  152  A    between atoms: _366  and  _367
REMARK  153  A    between atoms: _366  and  _369
REMARK  154  A    between atoms: _369  and  _370
REMARK  155  A    between atoms: _373  and  _375
REMARK  156  A    between atoms: _375  and  _376
REMARK  157  A    between atoms: _375  and  _378
REMARK  158  A    between atoms: _378  and  _379
REMARK  159  A    between atoms: _382  and  _384
REMARK  160  A    between atoms: _384  and  _385
REMARK  161  A    between atoms: _384  and  _387
REMARK  162  A    between atoms: _390  and  _392
REMARK  163  A    between atoms: _392  and  _393
REMARK  164  A    between atoms: _392  and  _395
REMARK  165  A    between atoms: _395  and  _396
REMARK  166  A    between atoms: _396  and  _397
REMARK  167  A    between atoms: _397  and  _398
REMARK  168  A    between atoms: _398  and  _399
REMARK  169  A    between atoms: _403  and  _405
REMARK  170  A    between atoms: _405  and  _406
REMARK  171  A    between atoms: _405  and  _408
REMARK  172  A    between atoms: _408  and  _409
REMARK  173  A    between atoms: _409  and  _410
REMARK  174  A    between atoms: _412  and  _414
REMARK  175  A    between atoms: _414  and  _415
REMARK  176  A    between atoms: _414  and  _417
REMARK  177  A    between atoms: _417  and  _418
REMARK  178  A    between atoms: _421  and  _423
REMARK  179  A    between atoms: _423  and  _424
REMARK  180  A    between atoms: _426  and  _428
REMARK  181  A    between atoms: _428  and  _429
REMARK  182  A    between atoms: _431  and  _433
REMARK  183  A    between atoms: _433  and  _434
REMARK  184  A    between atoms: _433  and  _436
REMARK  185  A    between atoms: _436  and  _437
REMARK  186  A    between atoms: _440  and  _442
REMARK  187  A    between atoms: _442  and  _443
REMARK  188  A    between atoms: _445  and  _447
REMARK  189  A    between atoms: _447  and  _448
REMARK  190  A    between atoms: _450  and  _452
REMARK  191  A    between atoms: _452  and  _453
REMARK  192  A    between atoms: _452  and  _455
REMARK  193  A    between atoms: _455  and  _456
REMARK  194  A    between atoms: _462  and  _464
REMARK  195  A    between atoms: _464  and  _465
REMARK  196  A    between atoms: _464  and  _467
REMARK  197  A    between atoms: _467  and  _468
REMARK  198  A    between atoms: _471  and  _473
REMARK  199  A    between atoms: _473  and  _474
REMARK  200  A    between atoms: _473  and  _476
REMARK  201  A    between atoms: _479  and  _481
REMARK  202  A    between atoms: _481  and  _482
REMARK  203  A    between atoms: _481  and  _484
REMARK  204  A    between atoms: _484  and  _485
REMARK  205  A    between atoms: _489  and  _490
REMARK  206  A    between atoms: _495  and  _497
REMARK  207  A    between atoms: _497  and  _498
REMARK  208  A    between atoms: _497  and  _500
REMARK  209  A    between atoms: _500  and  _501
REMARK  210  A    between atoms: _505  and  _506
REMARK  211  A    between atoms: _511  and  _513
REMARK  212  A    between atoms: _513  and  _514
REMARK  213  A    between atoms: _513  and  _516
REMARK  214  A    between atoms: _519  and  _521
REMARK  215  A    between atoms: _521  and  _522
REMARK  216  A    between atoms: _521  and  _524
REMARK  217  A    between atoms: _524  and  _525
REMARK  218  A    between atoms: _530  and  _532
REMARK  219  A    between atoms: _532  and  _533
REMARK  220  A    between atoms: _532  and  _535
REMARK  221  A    between atoms: _535  and  _536
REMARK  222  A    between atoms: _539  and  _541
REMARK  223  A    between atoms: _541  and  _542
REMARK  224  A    between atoms: _541  and  _544
REMARK  225  A    between atoms: _544  and  _545
REMARK  226  A    between atoms: _548  and  _550
REMARK  227  A    between atoms: _550  and  _551
REMARK  228  A    between atoms: _553  and  _555
REMARK  229  A    between atoms: _555  and  _556
REMARK  230  A    between atoms: _555  and  _558
REMARK  231  A    between atoms: _558  and  _559
REMARK  232  A    between atoms: _559  and  _560
REMARK  233  A    between atoms: _560  and  _561
REMARK                            x       y       z     vdW  Elec       q    Type
REMARK                         _______ _______ _______ _____ _____    ______ ____
ROOT
ATOM      1  O   HOH     1      22.036  24.032   4.776  0.00  0.00    +0.000 OA
ENDROOT
TORSDOF 0
REMARK  Name = ../refined-set-2016/1ec1/1ec1_pocket.pdb
REMARK  233 active torsions:
REMARK  status: ('A' for Active; 'I' for Inactive)
REMARK    1  A    between atoms: _1  and  _3
REMARK    2  A    between atoms: _3  and  _4
REMARK    3  A    between atoms: _3  and  _6
REMARK    4  A    between atoms: _6  and  _7
REMARK    5  A    between atoms: _7  and  _8
REMARK    6  A    between atoms: _8  and  _9
REMARK    7  A    between atoms: _18  and  _20
REMARK    8  A    between atoms: _20  and  _21
REMARK    9  A    between atoms: _20  and  _23
REMARK   10  A    between atoms: _23  and  _24
REMARK   11  A    between atoms: _27  and  _29
REMARK   12  A    between atoms: _29  and  _30
REMARK   13  A    between atoms: _29  and  _32
REMARK   14  A    between atoms: _32  and  _33
REMARK   15  A    between atoms: _36  and  _38
REMARK   16  A    between atoms: _38  and  _39
REMARK   17  A    between atoms: _38  and  _41
REMARK   18  A    between atoms: _41  and  _42
REMARK   19  A    between atoms: _45  and  _47
REMARK   20  A    between atoms: _47  and  _48
REMARK   21  A    between atoms: _47  and  _50
REMARK   22  A    between atoms: _50  and  _51
REMARK   23  A    between atoms: _54  and  _56
REMARK   24  A    between atoms: _56  and  _57
REMARK   25  A    between atoms: _56  and  _59
REMARK   26  A    between atoms: _59  and  _60
REMARK   27  A    between atoms: _63  and  _65
REMARK   28  A    between atoms: _65  and  _66
REMARK   29  A    between atoms: _68  and  _70
REMARK   30  A    between atoms: _70  and  _71
REMARK   31  A    between atoms: _74  and  _76
REMARK   32  A    between atoms: _76  and  _77
REMARK   33  A    between atoms: _76  and  _79
REMARK   34  A    between atoms: _79  and  _80
REMARK   35  A    between atoms: _83  and  _85
REMARK   36  A    between atoms: _85  and  _86
REMARK   37  A    between atoms: _85  and  _88
REMARK   38  A    between atoms: _88  and  _89
REMARK   39  A    between atoms: _92  and  _94
REMARK   40  A    between atoms: _94  and  _95
REMARK   41  A    between atoms: _94  and  _97
REMARK   42  A    between atoms: _97  and  _98
REMARK   43  A    between atoms: _101  and  _103
REMARK   44  A    between atoms: _103  and  _104
REMARK   45  A    between atoms: _103  and  _106
REMARK   46  A    between atoms: _109  and  _111
REMARK   47  A    between atoms: _111  and  _112
REMARK   48  A    between atoms: _111  and  _114
REMARK   49  A    between atoms: _114  and  _115
REMARK   50  A    between atoms: _115  and  _116
REMARK   51  A    between atoms: _116  and  _117
REMARK   52  A    between atoms: _117  and  _118
REMARK   53  A    between atoms: _122  and  _124
REMARK   54  A    between atoms: _124  and  _125
REMARK   55  A    between atoms: _124  and  _127
REMARK   56  A    between atoms: _127  and  _128
REMARK   57  A    between atoms: _128  and  _129
REMARK   58  A    between atoms: _131  and  _133
REMARK   59  A    between atoms: _133  and  _134
REMARK   60  A    between atoms: _133  and  _136
REMARK   61  A    between atoms: _136  and  _137
REMARK   62  A    between atoms: _140  and  _142
REMARK   63  A    between atoms: _142  and  _143
REMARK   64  A    between atoms: _145  and  _147
REMARK   65  A    between atoms: _147  and  _148
REMARK   66  A    between atoms: _150  and  _152
REMARK   67  A    between atoms: _152  and  _153
REMARK   68  A    between atoms: _152  and  _155
REMARK   69  A    between atoms: _155  and  _156
REMARK   70  A    between atoms: _159  and  _161
REMARK   71  A    between atoms: _161  and  _162
REMARK   72  A    between atoms: _164  and  _166
REMARK   73  A    between atoms: _166  and  _167
REMARK   74  A    between atoms: _169  and  _171
REMARK   75  A    between atoms: _171  and  _172
REMARK   76  A    between atoms: _171  and  _174
REMARK   77  A    between atoms: _174  and  _175
REMARK   78  A    between atoms: _181  and  _183
REMARK   79  A    between atoms: _183  and  _184
REMARK   80  A    between atoms: _183  and  _186
REMARK   81  A    between atoms: _186  and  _187
REMARK   82  A    between atoms: _190  and  _192
REMARK   83  A    between atoms: _192  and  _193
REMARK   84  A    between atoms: _192  and  _195
REMARK   85  A    between atoms: _198  and  _200
REMARK   86  A    between atoms: _200  and  _201
REMARK   87  A    between atoms: _200  and  _203
REMARK   88  A    between atoms: _203  and  _204
REMARK   89  A    between atoms: _207  and  _209
REMARK   90  A    between atoms: _209  and  _210
REMARK   91  A    between atoms: _209  and  _212
REMARK   92  A    between atoms: _212  and  _213
REMARK   93  A    between atoms: _217  and  _218
REMARK   94  A    between atoms: _223  and  _225
REMARK   95  A    between atoms: _225  and  _226
REMARK   96  A    between atoms: _225  and  _228
REMARK   97  A    between atoms: _231  and  _233
REMARK   98  A    between atoms: _233  and  _234
REMARK   99  A    between atoms: _233  and  _236
REMARK  100  A    between atoms: _236  and  _237
REMARK  101  A    between atoms: _242  and  _244
REMARK  102  A    between atoms: _244  and  _245
REMARK  103  A    between atoms: _244  and  _247
REMARK  104  A    between atoms: _247  and  _248
REMARK  105  A    between atoms: _251  and  _253
REMARK  106  A    between atoms: _253  and  _254
REMARK  107  A    between atoms: _253  and  _256
REMARK  108  A    between atoms: _256  and  _257
REMARK  109  A    between atoms: _260  and  _262
REMARK  110  A    between atoms: _262  and  _263
REMARK  111  A    between atoms: _265  and  _267
REMARK  112  A    between atoms: _267  and  _268
REMARK  113  A    between atoms: _267  and  _270
REMARK  114  A    between atoms: _270  and  _271
REMARK  115  A    between atoms: _271  and  _272
REMARK  116  A    between atoms: _272  and  _273
REMARK  117  A    between atoms: _282  and  _284
REMARK  118  A    between atoms: _284  and  _285
REMARK  119  A    between atoms: _284  and  _287
REMARK  120  A    between atoms: _287  and  _288
REMARK  121  A    between atoms: _288  and  _289
REMARK  122  A    between atoms: _289  and  _290
REMARK  123  A    between atoms: _299  and  _301
REMARK  124  A    between atoms: _301  and  _302
REMARK  125  A    between atoms: _301  and  _304
REMARK  126  A    between atoms: _304  and  _305
REMARK  127  A    between atoms: _308  and  _310
REMARK  128  A    between atoms: _310  and  _311
REMARK  129  A    between atoms: _310  and  _313
REMARK  130  A    between atoms: _313  and  _314
REMARK  131  A    between atoms: _317  and  _319
REMARK  132  A    between atoms: _319  and  _320
REMARK  133  A    between atoms: _319  and  _322
REMARK  134  A    between atoms: _322  and  _323
REMARK  135  A    between atoms: _326  and  _328
REMARK  136  A    between atoms: _328  and  _329
REMARK  137  A    between atoms: _328  and  _331
REMARK  138  A    between atoms: _331  and  _332
REMARK  139  A    between atoms: _335  and  _337
REMARK  140  A    between atoms: _337  and  _338
REMARK  141  A    between atoms: _337  and  _340
REMARK  142  A    between atoms: _340  and  _341
REMARK  143  A    between atoms: _344  and  _346
REMARK  144  A    between atoms: _346  and  _347
REMARK  145  A    between atoms: _349  and  _351
REMARK  146  A    between atoms: _351  and  _352
REMARK  147  A    between atoms: _355  and  _357
REMARK  148  A    between atoms: _357  and  _358
REMARK  149  A    between atoms: _357  and  _360
REMARK  150  A    between atoms: _360  and  _361
REMARK  151  A    between atoms: _364  and  _366
REMARK  152  A    between atoms: _366  and  _367
REMARK  153  A    between atoms: _366  and  _369
REMARK  154  A    between atoms: _369  and  _370
REMARK  155  A    between atoms: _373  and  _375
REMARK  156  A    between atoms: _375  and  _376
REMARK  157  A    between atoms: _375  and  _378
REMARK  158  A    between atoms: _378  and  _379
REMARK  159  A    between atoms: _382  and  _384
REMARK  160  A    between atoms: _384  and  _385
REMARK  161  A    between atoms: _384  and  _387
REMARK  162  A    between atoms: _390  and  _392
REMARK  163  A    between atoms: _392  and  _393
REMARK  164  A    between atoms: _392  and  _395
REMARK  165  A    between atoms: _395  and  _396
REMARK  166  A    between atoms: _396  and  _397
REMARK  167  A    between atoms: _397  and  _398
REMARK  168  A    between atoms: _398  and  _399
REMARK  169  A    between atoms: _403  and  _405
REMARK  170  A    between atoms: _405  and  _406
REMARK  171  A    between atoms: _405  and  _408
REMARK  172  A    between atoms: _408  and  _409
REMARK  173  A    between atoms: _409  and  _410
REMARK  174  A    between atoms: _412  and  _414
REMARK  175  A    between atoms: _414  and  _415
REMARK  176  A    between atoms: _414  and  _417
REMARK  177  A    between atoms: _417  and  _418
REMARK  178  A    between atoms: _421  and  _423
REMARK  179  A    between atoms: _423  and  _424
REMARK  180  A    between atoms: _426  and  _428
REMARK  181  A    between atoms: _428  and  _429
REMARK  182  A    between atoms: _431  and  _433
REMARK  183  A    between atoms: _433  and  _434
REMARK  184  A    between atoms: _433  and  _436
REMARK  185  A    between atoms: _436  and  _437
REMARK  186  A    between atoms: _440  and  _442
REMARK  187  A    between atoms: _442  and  _443
REMARK  188  A    between atoms: _445  and  _447
REMARK  189  A    between atoms: _447  and  _448
REMARK  190  A    between atoms: _450  and  _452
REMARK  191  A    between atoms: _452  and  _453
REMARK  192  A    between atoms: _452  and  _455
REMARK  193  A    between atoms: _455  and  _456
REMARK  194  A    between atoms: _462  and  _464
REMARK  195  A    between atoms: _464  and  _465
REMARK  196  A    between atoms: _464  and  _467
REMARK  197  A    between atoms: _467  and  _468
REMARK  198  A    between atoms: _471  and  _473
REMARK  199  A    between atoms: _473  and  _474
REMARK  200  A    between atoms: _473  and  _476
REMARK  201  A    between atoms: _479  and  _481
REMARK  202  A    between atoms: _481  and  _482
REMARK  203  A    between atoms: _481  and  _484
REMARK  204  A    between atoms: _484  and  _485
REMARK  205  A    between atoms: _489  and  _490
REMARK  206  A    between atoms: _495  and  _497
REMARK  207  A    between atoms: _497  and  _498
REMARK  208  A    between atoms: _497  and  _500
REMARK  209  A    between atoms: _500  and  _501
REMARK  210  A    between atoms: _505  and  _506
REMARK  211  A    between atoms: _511  and  _513
REMARK  212  A    between atoms: _513  and  _514
REMARK  213  A    between atoms: _513  and  _516
REMARK  214  A    between atoms: _519  and  _521
REMARK  215  A    between atoms: _521  and  _522
REMARK  216  A    between atoms: _521  and  _524
REMARK  217  A    between atoms: _524  and  _525
REMARK  218  A    between atoms: _530  and  _532
REMARK  219  A    between atoms: _532  and  _533
REMARK  220  A    between atoms: _532  and  _535
REMARK  221  A    between atoms: _535  and  _536
REMARK  222  A    between atoms: _539  and  _541
REMARK  223  A    between atoms: _541  and  _542
REMARK  224  A    between atoms: _541  and  _544
REMARK  225  A    between atoms: _544  and  _545
REMARK  226  A    between atoms: _548  and  _550
REMARK  227  A    between atoms: _550  and  _551
REMARK  228  A    between atoms: _553  and  _555
REMARK  229  A    between atoms: _555  and  _556
REMARK  230  A    between atoms: _555  and  _558
REMARK  231  A    between atoms: _558  and  _559
REMARK  232  A    between atoms: _559  and  _560
REMARK  233  A    between atoms: _560  and  _561
REMARK                            x       y       z     vdW  Elec       q    Type
REMARK                         _______ _______ _______ _____ _____    ______ ____
ROOT
ATOM      1  O   HOH     1      18.408  14.600   6.281  0.00  0.00    +0.000 OA
ENDROOT
TORSDOF 0
REMARK  Name = ../refined-set-2016/1ec1/1ec1_pocket.pdb
REMARK  233 active torsions:
REMARK  status: ('A' for Active; 'I' for Inactive)
REMARK    1  A    between atoms: _1  and  _3
REMARK    2  A    between atoms: _3  and  _4
REMARK    3  A    between atoms: _3  and  _6
REMARK    4  A    between atoms: _6  and  _7
REMARK    5  A    between atoms: _7  and  _8
REMARK    6  A    between atoms: _8  and  _9
REMARK    7  A    between atoms: _18  and  _20
REMARK    8  A    between atoms: _20  and  _21
REMARK    9  A    between atoms: _20  and  _23
REMARK   10  A    between atoms: _23  and  _24
REMARK   11  A    between atoms: _27  and  _29
REMARK   12  A    between atoms: _29  and  _30
REMARK   13  A    between atoms: _29  and  _32
REMARK   14  A    between atoms: _32  and  _33
REMARK   15  A    between atoms: _36  and  _38
REMARK   16  A    between atoms: _38  and  _39
REMARK   17  A    between atoms: _38  and  _41
REMARK   18  A    between atoms: _41  and  _42
REMARK   19  A    between atoms: _45  and  _47
REMARK   20  A    between atoms: _47  and  _48
REMARK   21  A    between atoms: _47  and  _50
REMARK   22  A    between atoms: _50  and  _51
REMARK   23  A    between atoms: _54  and  _56
REMARK   24  A    between atoms: _56  and  _57
REMARK   25  A    between atoms: _56  and  _59
REMARK   26  A    between atoms: _59  and  _60
REMARK   27  A    between atoms: _63  and  _65
REMARK   28  A    between atoms: _65  and  _66
REMARK   29  A    between atoms: _68  and  _70
REMARK   30  A    between atoms: _70  and  _71
REMARK   31  A    between atoms: _74  and  _76
REMARK   32  A    between atoms: _76  and  _77
REMARK   33  A    between atoms: _76  and  _79
REMARK   34  A    between atoms: _79  and  _80
REMARK   35  A    between atoms: _83  and  _85
REMARK   36  A    between atoms: _85  and  _86
REMARK   37  A    between atoms: _85  and  _88
REMARK   38  A    between atoms: _88  and  _89
REMARK   39  A    between atoms: _92  and  _94
REMARK   40  A    between atoms: _94  and  _95
REMARK   41  A    between atoms: _94  and  _97
REMARK   42  A    between atoms: _97  and  _98
REMARK   43  A    between atoms: _101  and  _103
REMARK   44  A    between atoms: _103  and  _104
REMARK   45  A    between atoms: _103  and  _106
REMARK   46  A    between atoms: _109  and  _111
REMARK   47  A    between atoms: _111  and  _112
REMARK   48  A    between atoms: _111  and  _114
REMARK   49  A    between atoms: _114  and  _115
REMARK   50  A    between atoms: _115  and  _116
REMARK   51  A    between atoms: _116  and  _117
REMARK   52  A    between atoms: _117  and  _118
REMARK   53  A    between atoms: _122  and  _124
REMARK   54  A    between atoms: _124  and  _125
REMARK   55  A    between atoms: _124  and  _127
REMARK   56  A    between atoms: _127  and  _128
REMARK   57  A    between atoms: _128  and  _129
REMARK   58  A    between atoms: _131  and  _133
REMARK   59  A    between atoms: _133  and  _134
REMARK   60  A    between atoms: _133  and  _136
REMARK   61  A    between atoms: _136  and  _137
REMARK   62  A    between atoms: _140  and  _142
REMARK   63  A    between atoms: _142  and  _143
REMARK   64  A    between atoms: _145  and  _147
REMARK   65  A    between atoms: _147  and  _148
REMARK   66  A    between atoms: _150  and  _152
REMARK   67  A    between atoms: _152  and  _153
REMARK   68  A    between atoms: _152  and  _155
REMARK   69  A    between atoms: _155  and  _156
REMARK   70  A    between atoms: _159  and  _161
REMARK   71  A    between atoms: _161  and  _162
REMARK   72  A    between atoms: _164  and  _166
REMARK   73  A    between atoms: _166  and  _167
REMARK   74  A    between atoms: _169  and  _171
REMARK   75  A    between atoms: _171  and  _172
REMARK   76  A    between atoms: _171  and  _174
REMARK   77  A    between atoms: _174  and  _175
REMARK   78  A    between atoms: _181  and  _183
REMARK   79  A    between atoms: _183  and  _184
REMARK   80  A    between atoms: _183  and  _186
REMARK   81  A    between atoms: _186  and  _187
REMARK   82  A    between atoms: _190  and  _192
REMARK   83  A    between atoms: _192  and  _193
REMARK   84  A    between atoms: _192  and  _195
REMARK   85  A    between atoms: _198  and  _200
REMARK   86  A    between atoms: _200  and  _201
REMARK   87  A    between atoms: _200  and  _203
REMARK   88  A    between atoms: _203  and  _204
REMARK   89  A    between atoms: _207  and  _209
REMARK   90  A    between atoms: _209  and  _210
REMARK   91  A    between atoms: _209  and  _212
REMARK   92  A    between atoms: _212  and  _213
REMARK   93  A    between atoms: _217  and  _218
REMARK   94  A    between atoms: _223  and  _225
REMARK   95  A    between atoms: _225  and  _226
REMARK   96  A    between atoms: _225  and  _228
REMARK   97  A    between atoms: _231  and  _233
REMARK   98  A    between atoms: _233  and  _234
REMARK   99  A    between atoms: _233  and  _236
REMARK  100  A    between atoms: _236  and  _237
REMARK  101  A    between atoms: _242  and  _244
REMARK  102  A    between atoms: _244  and  _245
REMARK  103  A    between atoms: _244  and  _247
REMARK  104  A    between atoms: _247  and  _248
REMARK  105  A    between atoms: _251  and  _253
REMARK  106  A    between atoms: _253  and  _254
REMARK  107  A    between atoms: _253  and  _256
REMARK  108  A    between atoms: _256  and  _257
REMARK  109  A    between atoms: _260  and  _262
REMARK  110  A    between atoms: _262  and  _263
REMARK  111  A    between atoms: _265  and  _267
REMARK  112  A    between atoms: _267  and  _268
REMARK  113  A    between atoms: _267  and  _270
REMARK  114  A    between atoms: _270  and  _271
REMARK  115  A    between atoms: _271  and  _272
REMARK  116  A    between atoms: _272  and  _273
REMARK  117  A    between atoms: _282  and  _284
REMARK  118  A    between atoms: _284  and  _285
REMARK  119  A    between atoms: _284  and  _287
REMARK  120  A    between atoms: _287  and  _288
REMARK  121  A    between atoms: _288  and  _289
REMARK  122  A    between atoms: _289  and  _290
REMARK  123  A    between atoms: _299  and  _301
REMARK  124  A    between atoms: _301  and  _302
REMARK  125  A    between atoms: _301  and  _304
REMARK  126  A    between atoms: _304  and  _305
REMARK  127  A    between atoms: _308  and  _310
REMARK  128  A    between atoms: _310  and  _311
REMARK  129  A    between atoms: _310  and  _313
REMARK  130  A    between atoms: _313  and  _314
REMARK  131  A    between atoms: _317  and  _319
REMARK  132  A    between atoms: _319  and  _320
REMARK  133  A    between atoms: _319  and  _322
REMARK  134  A    between atoms: _322  and  _323
REMARK  135  A    between atoms: _326  and  _328
REMARK  136  A    between atoms: _328  and  _329
REMARK  137  A    between atoms: _328  and  _331
REMARK  138  A    between atoms: _331  and  _332
REMARK  139  A    between atoms: _335  and  _337
REMARK  140  A    between atoms: _337  and  _338
REMARK  141  A    between atoms: _337  and  _340
REMARK  142  A    between atoms: _340  and  _341
REMARK  143  A    between atoms: _344  and  _346
REMARK  144  A    between atoms: _346  and  _347
REMARK  145  A    between atoms: _349  and  _351
REMARK  146  A    between atoms: _351  and  _352
REMARK  147  A    between atoms: _355  and  _357
REMARK  148  A    between atoms: _357  and  _358
REMARK  149  A    between atoms: _357  and  _360
REMARK  150  A    between atoms: _360  and  _361
REMARK  151  A    between atoms: _364  and  _366
REMARK  152  A    between atoms: _366  and  _367
REMARK  153  A    between atoms: _366  and  _369
REMARK  154  A    between atoms: _369  and  _370
REMARK  155  A    between atoms: _373  and  _375
REMARK  156  A    between atoms: _375  and  _376
REMARK  157  A    between atoms: _375  and  _378
REMARK  158  A    between atoms: _378  and  _379
REMARK  159  A    between atoms: _382  and  _384
REMARK  160  A    between atoms: _384  and  _385
REMARK  161  A    between atoms: _384  and  _387
REMARK  162  A    between atoms: _390  and  _392
REMARK  163  A    between atoms: _392  and  _393
REMARK  164  A    between atoms: _392  and  _395
REMARK  165  A    between atoms: _395  and  _396
REMARK  166  A    between atoms: _396  and  _397
REMARK  167  A    between atoms: _397  and  _398
REMARK  168  A    between atoms: _398  and  _399
REMARK  169  A    between atoms: _403  and  _405
REMARK  170  A    between atoms: _405  and  _406
REMARK  171  A    between atoms: _405  and  _408
REMARK  172  A    between atoms: _408  and  _409
REMARK  173  A    between atoms: _409  and  _410
REMARK  174  A    between atoms: _412  and  _414
REMARK  175  A    between atoms: _414  and  _415
REMARK  176  A    between atoms: _414  and  _417
REMARK  177  A    between atoms: _417  and  _418
REMARK  178  A    between atoms: _421  and  _423
REMARK  179  A    between atoms: _423  and  _424
REMARK  180  A    between atoms: _426  and  _428
REMARK  181  A    between atoms: _428  and  _429
REMARK  182  A    between atoms: _431  and  _433
REMARK  183  A    between atoms: _433  and  _434
REMARK  184  A    between atoms: _433  and  _436
REMARK  185  A    between atoms: _436  and  _437
REMARK  186  A    between atoms: _440  and  _442
REMARK  187  A    between atoms: _442  and  _443
REMARK  188  A    between atoms: _445  and  _447
REMARK  189  A    between atoms: _447  and  _448
REMARK  190  A    between atoms: _450  and  _452
REMARK  191  A    between atoms: _452  and  _453
REMARK  192  A    between atoms: _452  and  _455
REMARK  193  A    between atoms: _455  and  _456
REMARK  194  A    between atoms: _462  and  _464
REMARK  195  A    between atoms: _464  and  _465
REMARK  196  A    between atoms: _464  and  _467
REMARK  197  A    between atoms: _467  and  _468
REMARK  198  A    between atoms: _471  and  _473
REMARK  199  A    between atoms: _473  and  _474
REMARK  200  A    between atoms: _473  and  _476
REMARK  201  A    between atoms: _479  and  _481
REMARK  202  A    between atoms: _481  and  _482
REMARK  203  A    between atoms: _481  and  _484
REMARK  204  A    between atoms: _484  and  _485
REMARK  205  A    between atoms: _489  and  _490
REMARK  206  A    between atoms: _495  and  _497
REMARK  207  A    between atoms: _497  and  _498
REMARK  208  A    between atoms: _497  and  _500
REMARK  209  A    between atoms: _500  and  _501
REMARK  210  A    between atoms: _505  and  _506
REMARK  211  A    between atoms: _511  and  _513
REMARK  212  A    between atoms: _513  and  _514
REMARK  213  A    between atoms: _513  and  _516
REMARK  214  A    between atoms: _519  and  _521
REMARK  215  A    between atoms: _521  and  _522
REMARK  216  A    between atoms: _521  and  _524
REMARK  217  A    between atoms: _524  and  _525
REMARK  218  A    between atoms: _530  and  _532
REMARK  219  A    between atoms: _532  and  _533
REMARK  220  A    between atoms: _532  and  _535
REMARK  221  A    between atoms: _535  and  _536
REMARK  222  A    between atoms: _539  and  _541
REMARK  223  A    between atoms: _541  and  _542
REMARK  224  A    between atoms: _541  and  _544
REMARK  225  A    between atoms: _544  and  _545
REMARK  226  A    between atoms: _548  and  _550
REMARK  227  A    between atoms: _550  and  _551
REMARK  228  A    between atoms: _553  and  _555
REMARK  229  A    between atoms: _555  and  _556
REMARK  230  A    between atoms: _555  and  _558
REMARK  231  A    between atoms: _558  and  _559
REMARK  232  A    between atoms: _559  and  _560
REMARK  233  A    between atoms: _560  and  _561
REMARK                            x       y       z     vdW  Elec       q    Type
REMARK                         _______ _______ _______ _____ _____    ______ ____
ROOT
ATOM      1  O   HOH     1      19.922  15.429   3.943  0.00  0.00    +0.000 OA
ENDROOT
TORSDOF 0
REMARK  Name = ../refined-set-2016/1ec1/1ec1_pocket.pdb
REMARK  233 active torsions:
REMARK  status: ('A' for Active; 'I' for Inactive)
REMARK    1  A    between atoms: _1  and  _3
REMARK    2  A    between atoms: _3  and  _4
REMARK    3  A    between atoms: _3  and  _6
REMARK    4  A    between atoms: _6  and  _7
REMARK    5  A    between atoms: _7  and  _8
REMARK    6  A    between atoms: _8  and  _9
REMARK    7  A    between atoms: _18  and  _20
REMARK    8  A    between atoms: _20  and  _21
REMARK    9  A    between atoms: _20  and  _23
REMARK   10  A    between atoms: _23  and  _24
REMARK   11  A    between atoms: _27  and  _29
REMARK   12  A    between atoms: _29  and  _30
REMARK   13  A    between atoms: _29  and  _32
REMARK   14  A    between atoms: _32  and  _33
REMARK   15  A    between atoms: _36  and  _38
REMARK   16  A    between atoms: _38  and  _39
REMARK   17  A    between atoms: _38  and  _41
REMARK   18  A    between atoms: _41  and  _42
REMARK   19  A    between atoms: _45  and  _47
REMARK   20  A    between atoms: _47  and  _48
REMARK   21  A    between atoms: _47  and  _50
REMARK   22  A    between atoms: _50  and  _51
REMARK   23  A    between atoms: _54  and  _56
REMARK   24  A    between atoms: _56  and  _57
REMARK   25  A    between atoms: _56  and  _59
REMARK   26  A    between atoms: _59  and  _60
REMARK   27  A    between atoms: _63  and  _65
REMARK   28  A    between atoms: _65  and  _66
REMARK   29  A    between atoms: _68  and  _70
REMARK   30  A    between atoms: _70  and  _71
REMARK   31  A    between atoms: _74  and  _76
REMARK   32  A    between atoms: _76  and  _77
REMARK   33  A    between atoms: _76  and  _79
REMARK   34  A    between atoms: _79  and  _80
REMARK   35  A    between atoms: _83  and  _85
REMARK   36  A    between atoms: _85  and  _86
REMARK   37  A    between atoms: _85  and  _88
REMARK   38  A    between atoms: _88  and  _89
REMARK   39  A    between atoms: _92  and  _94
REMARK   40  A    between atoms: _94  and  _95
REMARK   41  A    between atoms: _94  and  _97
REMARK   42  A    between atoms: _97  and  _98
REMARK   43  A    between atoms: _101  and  _103
REMARK   44  A    between atoms: _103  and  _104
REMARK   45  A    between atoms: _103  and  _106
REMARK   46  A    between atoms: _109  and  _111
REMARK   47  A    between atoms: _111  and  _112
REMARK   48  A    between atoms: _111  and  _114
REMARK   49  A    between atoms: _114  and  _115
REMARK   50  A    between atoms: _115  and  _116
REMARK   51  A    between atoms: _116  and  _117
REMARK   52  A    between atoms: _117  and  _118
REMARK   53  A    between atoms: _122  and  _124
REMARK   54  A    between atoms: _124  and  _125
REMARK   55  A    between atoms: _124  and  _127
REMARK   56  A    between atoms: _127  and  _128
REMARK   57  A    between atoms: _128  and  _129
REMARK   58  A    between atoms: _131  and  _133
REMARK   59  A    between atoms: _133  and  _134
REMARK   60  A    between atoms: _133  and  _136
REMARK   61  A    between atoms: _136  and  _137
REMARK   62  A    between atoms: _140  and  _142
REMARK   63  A    between atoms: _142  and  _143
REMARK   64  A    between atoms: _145  and  _147
REMARK   65  A    between atoms: _147  and  _148
REMARK   66  A    between atoms: _150  and  _152
REMARK   67  A    between atoms: _152  and  _153
REMARK   68  A    between atoms: _152  and  _155
REMARK   69  A    between atoms: _155  and  _156
REMARK   70  A    between atoms: _159  and  _161
REMARK   71  A    between atoms: _161  and  _162
REMARK   72  A    between atoms: _164  and  _166
REMARK   73  A    between atoms: _166  and  _167
REMARK   74  A    between atoms: _169  and  _171
REMARK   75  A    between atoms: _171  and  _172
REMARK   76  A    between atoms: _171  and  _174
REMARK   77  A    between atoms: _174  and  _175
REMARK   78  A    between atoms: _181  and  _183
REMARK   79  A    between atoms: _183  and  _184
REMARK   80  A    between atoms: _183  and  _186
REMARK   81  A    between atoms: _186  and  _187
REMARK   82  A    between atoms: _190  and  _192
REMARK   83  A    between atoms: _192  and  _193
REMARK   84  A    between atoms: _192  and  _195
REMARK   85  A    between atoms: _198  and  _200
REMARK   86  A    between atoms: _200  and  _201
REMARK   87  A    between atoms: _200  and  _203
REMARK   88  A    between atoms: _203  and  _204
REMARK   89  A    between atoms: _207  and  _209
REMARK   90  A    between atoms: _209  and  _210
REMARK   91  A    between atoms: _209  and  _212
REMARK   92  A    between atoms: _212  and  _213
REMARK   93  A    between atoms: _217  and  _218
REMARK   94  A    between atoms: _223  and  _225
REMARK   95  A    between atoms: _225  and  _226
REMARK   96  A    between atoms: _225  and  _228
REMARK   97  A    between atoms: _231  and  _233
REMARK   98  A    between atoms: _233  and  _234
REMARK   99  A    between atoms: _233  and  _236
REMARK  100  A    between atoms: _236  and  _237
REMARK  101  A    between atoms: _242  and  _244
REMARK  102  A    between atoms: _244  and  _245
REMARK  103  A    between atoms: _244  and  _247
REMARK  104  A    between atoms: _247  and  _248
REMARK  105  A    between atoms: _251  and  _253
REMARK  106  A    between atoms: _253  and  _254
REMARK  107  A    between atoms: _253  and  _256
REMARK  108  A    between atoms: _256  and  _257
REMARK  109  A    between atoms: _260  and  _262
REMARK  110  A    between atoms: _262  and  _263
REMARK  111  A    between atoms: _265  and  _267
REMARK  112  A    between atoms: _267  and  _268
REMARK  113  A    between atoms: _267  and  _270
REMARK  114  A    between atoms: _270  and  _271
REMARK  115  A    between atoms: _271  and  _272
REMARK  116  A    between atoms: _272  and  _273
REMARK  117  A    between atoms: _282  and  _284
REMARK  118  A    between atoms: _284  and  _285
REMARK  119  A    between atoms: _284  and  _287
REMARK  120  A    between atoms: _287  and  _288
REMARK  121  A    between atoms: _288  and  _289
REMARK  122  A    between atoms: _289  and  _290
REMARK  123  A    between atoms: _299  and  _301
REMARK  124  A    between atoms: _301  and  _302
REMARK  125  A    between atoms: _301  and  _304
REMARK  126  A    between atoms: _304  and  _305
REMARK  127  A    between atoms: _308  and  _310
REMARK  128  A    between atoms: _310  and  _311
REMARK  129  A    between atoms: _310  and  _313
REMARK  130  A    between atoms: _313  and  _314
REMARK  131  A    between atoms: _317  and  _319
REMARK  132  A    between atoms: _319  and  _320
REMARK  133  A    between atoms: _319  and  _322
REMARK  134  A    between atoms: _322  and  _323
REMARK  135  A    between atoms: _326  and  _328
REMARK  136  A    between atoms: _328  and  _329
REMARK  137  A    between atoms: _328  and  _331
REMARK  138  A    between atoms: _331  and  _332
REMARK  139  A    between atoms: _335  and  _337
REMARK  140  A    between atoms: _337  and  _338
REMARK  141  A    between atoms: _337  and  _340
REMARK  142  A    between atoms: _340  and  _341
REMARK  143  A    between atoms: _344  and  _346
REMARK  144  A    between atoms: _346  and  _347
REMARK  145  A    between atoms: _349  and  _351
REMARK  146  A    between atoms: _351  and  _352
REMARK  147  A    between atoms: _355  and  _357
REMARK  148  A    between atoms: _357  and  _358
REMARK  149  A    between atoms: _357  and  _360
REMARK  150  A    between atoms: _360  and  _361
REMARK  151  A    between atoms: _364  and  _366
REMARK  152  A    between atoms: _366  and  _367
REMARK  153  A    between atoms: _366  and  _369
REMARK  154  A    between atoms: _369  and  _370
REMARK  155  A    between atoms: _373  and  _375
REMARK  156  A    between atoms: _375  and  _376
REMARK  157  A    between atoms: _375  and  _378
REMARK  158  A    between atoms: _378  and  _379
REMARK  159  A    between atoms: _382  and  _384
REMARK  160  A    between atoms: _384  and  _385
REMARK  161  A    between atoms: _384  and  _387
REMARK  162  A    between atoms: _390  and  _392
REMARK  163  A    between atoms: _392  and  _393
REMARK  164  A    between atoms: _392  and  _395
REMARK  165  A    between atoms: _395  and  _396
REMARK  166  A    between atoms: _396  and  _397
REMARK  167  A    between atoms: _397  and  _398
REMARK  168  A    between atoms: _398  and  _399
REMARK  169  A    between atoms: _403  and  _405
REMARK  170  A    between atoms: _405  and  _406
REMARK  171  A    between atoms: _405  and  _408
REMARK  172  A    between atoms: _408  and  _409
REMARK  173  A    between atoms: _409  and  _410
REMARK  174  A    between atoms: _412  and  _414
REMARK  175  A    between atoms: _414  and  _415
REMARK  176  A    between atoms: _414  and  _417
REMARK  177  A    between atoms: _417  and  _418
REMARK  178  A    between atoms: _421  and  _423
REMARK  179  A    between atoms: _423  and  _424
REMARK  180  A    between atoms: _426  and  _428
REMARK  181  A    between atoms: _428  and  _429
REMARK  182  A    between atoms: _431  and  _433
REMARK  183  A    between atoms: _433  and  _434
REMARK  184  A    between atoms: _433  and  _436
REMARK  185  A    between atoms: _436  and  _437
REMARK  186  A    between atoms: _440  and  _442
REMARK  187  A    between atoms: _442  and  _443
REMARK  188  A    between atoms: _445  and  _447
REMARK  189  A    between atoms: _447  and  _448
REMARK  190  A    between atoms: _450  and  _452
REMARK  191  A    between atoms: _452  and  _453
REMARK  192  A    between atoms: _452  and  _455
REMARK  193  A    between atoms: _455  and  _456
REMARK  194  A    between atoms: _462  and  _464
REMARK  195  A    between atoms: _464  and  _465
REMARK  196  A    between atoms: _464  and  _467
REMARK  197  A    between atoms: _467  and  _468
REMARK  198  A    between atoms: _471  and  _473
REMARK  199  A    between atoms: _473  and  _474
REMARK  200  A    between atoms: _473  and  _476
REMARK  201  A    between atoms: _479  and  _481
REMARK  202  A    between atoms: _481  and  _482
REMARK  203  A    between atoms: _481  and  _484
REMARK  204  A    between atoms: _484  and  _485
REMARK  205  A    between atoms: _489  and  _490
REMARK  206  A    between atoms: _495  and  _497
REMARK  207  A    between atoms: _497  and  _498
REMARK  208  A    between atoms: _497  and  _500
REMARK  209  A    between atoms: _500  and  _501
REMARK  210  A    between atoms: _505  and  _506
REMARK  211  A    between atoms: _511  and  _513
REMARK  212  A    between atoms: _513  and  _514
REMARK  213  A    between atoms: _513  and  _516
REMARK  214  A    between atoms: _519  and  _521
REMARK  215  A    between atoms: _521  and  _522
REMARK  216  A    between atoms: _521  and  _524
REMARK  217  A    between atoms: _524  and  _525
REMARK  218  A    between atoms: _530  and  _532
REMARK  219  A    between atoms: _532  and  _533
REMARK  220  A    between atoms: _532  and  _535
REMARK  221  A    between atoms: _535  and  _536
REMARK  222  A    between atoms: _539  and  _541
REMARK  223  A    between atoms: _541  and  _542
REMARK  224  A    between atoms: _541  and  _544
REMARK  225  A    between atoms: _544  and  _545
REMARK  226  A    between atoms: _548  and  _550
REMARK  227  A    between atoms: _550  and  _551
REMARK  228  A    between atoms: _553  and  _555
REMARK  229  A    between atoms: _555  and  _556
REMARK  230  A    between atoms: _555  and  _558
REMARK  231  A    between atoms: _558  and  _559
REMARK  232  A    between atoms: _559  and  _560
REMARK  233  A    between atoms: _560  and  _561
REMARK                            x       y       z     vdW  Elec       q    Type
REMARK                         _______ _______ _______ _____ _____    ______ ____
ROOT
ATOM      1  O   HOH     1      14.008  15.759  11.350  0.00  0.00    +0.000 OA
ENDROOT
TORSDOF 0
REMARK  Name = ../refined-set-2016/1ec1/1ec1_pocket.pdb
REMARK  233 active torsions:
REMARK  status: ('A' for Active; 'I' for Inactive)
REMARK    1  A    between atoms: _1  and  _3
REMARK    2  A    between atoms: _3  and  _4
REMARK    3  A    between atoms: _3  and  _6
REMARK    4  A    between atoms: _6  and  _7
REMARK    5  A    between atoms: _7  and  _8
REMARK    6  A    between atoms: _8  and  _9
REMARK    7  A    between atoms: _18  and  _20
REMARK    8  A    between atoms: _20  and  _21
REMARK    9  A    between atoms: _20  and  _23
REMARK   10  A    between atoms: _23  and  _24
REMARK   11  A    between atoms: _27  and  _29
REMARK   12  A    between atoms: _29  and  _30
REMARK   13  A    between atoms: _29  and  _32
REMARK   14  A    between atoms: _32  and  _33
REMARK   15  A    between atoms: _36  and  _38
REMARK   16  A    between atoms: _38  and  _39
REMARK   17  A    between atoms: _38  and  _41
REMARK   18  A    between atoms: _41  and  _42
REMARK   19  A    between atoms: _45  and  _47
REMARK   20  A    between atoms: _47  and  _48
REMARK   21  A    between atoms: _47  and  _50
REMARK   22  A    between atoms: _50  and  _51
REMARK   23  A    between atoms: _54  and  _56
REMARK   24  A    between atoms: _56  and  _57
REMARK   25  A    between atoms: _56  and  _59
REMARK   26  A    between atoms: _59  and  _60
REMARK   27  A    between atoms: _63  and  _65
REMARK   28  A    between atoms: _65  and  _66
REMARK   29  A    between atoms: _68  and  _70
REMARK   30  A    between atoms: _70  and  _71
REMARK   31  A    between atoms: _74  and  _76
REMARK   32  A    between atoms: _76  and  _77
REMARK   33  A    between atoms: _76  and  _79
REMARK   34  A    between atoms: _79  and  _80
REMARK   35  A    between atoms: _83  and  _85
REMARK   36  A    between atoms: _85  and  _86
REMARK   37  A    between atoms: _85  and  _88
REMARK   38  A    between atoms: _88  and  _89
REMARK   39  A    between atoms: _92  and  _94
REMARK   40  A    between atoms: _94  and  _95
REMARK   41  A    between atoms: _94  and  _97
REMARK   42  A    between atoms: _97  and  _98
REMARK   43  A    between atoms: _101  and  _103
REMARK   44  A    between atoms: _103  and  _104
REMARK   45  A    between atoms: _103  and  _106
REMARK   46  A    between atoms: _109  and  _111
REMARK   47  A    between atoms: _111  and  _112
REMARK   48  A    between atoms: _111  and  _114
REMARK   49  A    between atoms: _114  and  _115
REMARK   50  A    between atoms: _115  and  _116
REMARK   51  A    between atoms: _116  and  _117
REMARK   52  A    between atoms: _117  and  _118
REMARK   53  A    between atoms: _122  and  _124
REMARK   54  A    between atoms: _124  and  _125
REMARK   55  A    between atoms: _124  and  _127
REMARK   56  A    between atoms: _127  and  _128
REMARK   57  A    between atoms: _128  and  _129
REMARK   58  A    between atoms: _131  and  _133
REMARK   59  A    between atoms: _133  and  _134
REMARK   60  A    between atoms: _133  and  _136
REMARK   61  A    between atoms: _136  and  _137
REMARK   62  A    between atoms: _140  and  _142
REMARK   63  A    between atoms: _142  and  _143
REMARK   64  A    between atoms: _145  and  _147
REMARK   65  A    between atoms: _147  and  _148
REMARK   66  A    between atoms: _150  and  _152
REMARK   67  A    between atoms: _152  and  _153
REMARK   68  A    between atoms: _152  and  _155
REMARK   69  A    between atoms: _155  and  _156
REMARK   70  A    between atoms: _159  and  _161
REMARK   71  A    between atoms: _161  and  _162
REMARK   72  A    between atoms: _164  and  _166
REMARK   73  A    between atoms: _166  and  _167
REMARK   74  A    between atoms: _169  and  _171
REMARK   75  A    between atoms: _171  and  _172
REMARK   76  A    between atoms: _171  and  _174
REMARK   77  A    between atoms: _174  and  _175
REMARK   78  A    between atoms: _181  and  _183
REMARK   79  A    between atoms: _183  and  _184
REMARK   80  A    between atoms: _183  and  _186
REMARK   81  A    between atoms: _186  and  _187
REMARK   82  A    between atoms: _190  and  _192
REMARK   83  A    between atoms: _192  and  _193
REMARK   84  A    between atoms: _192  and  _195
REMARK   85  A    between atoms: _198  and  _200
REMARK   86  A    between atoms: _200  and  _201
REMARK   87  A    between atoms: _200  and  _203
REMARK   88  A    between atoms: _203  and  _204
REMARK   89  A    between atoms: _207  and  _209
REMARK   90  A    between atoms: _209  and  _210
REMARK   91  A    between atoms: _209  and  _212
REMARK   92  A    between atoms: _212  and  _213
REMARK   93  A    between atoms: _217  and  _218
REMARK   94  A    between atoms: _223  and  _225
REMARK   95  A    between atoms: _225  and  _226
REMARK   96  A    between atoms: _225  and  _228
REMARK   97  A    between atoms: _231  and  _233
REMARK   98  A    between atoms: _233  and  _234
REMARK   99  A    between atoms: _233  and  _236
REMARK  100  A    between atoms: _236  and  _237
REMARK  101  A    between atoms: _242  and  _244
REMARK  102  A    between atoms: _244  and  _245
REMARK  103  A    between atoms: _244  and  _247
REMARK  104  A    between atoms: _247  and  _248
REMARK  105  A    between atoms: _251  and  _253
REMARK  106  A    between atoms: _253  and  _254
REMARK  107  A    between atoms: _253  and  _256
REMARK  108  A    between atoms: _256  and  _257
REMARK  109  A    between atoms: _260  and  _262
REMARK  110  A    between atoms: _262  and  _263
REMARK  111  A    between atoms: _265  and  _267
REMARK  112  A    between atoms: _267  and  _268
REMARK  113  A    between atoms: _267  and  _270
REMARK  114  A    between atoms: _270  and  _271
REMARK  115  A    between atoms: _271  and  _272
REMARK  116  A    between atoms: _272  and  _273
REMARK  117  A    between atoms: _282  and  _284
REMARK  118  A    between atoms: _284  and  _285
REMARK  119  A    between atoms: _284  and  _287
REMARK  120  A    between atoms: _287  and  _288
REMARK  121  A    between atoms: _288  and  _289
REMARK  122  A    between atoms: _289  and  _290
REMARK  123  A    between atoms: _299  and  _301
REMARK  124  A    between atoms: _301  and  _302
REMARK  125  A    between atoms: _301  and  _304
REMARK  126  A    between atoms: _304  and  _305
REMARK  127  A    between atoms: _308  and  _310
REMARK  128  A    between atoms: _310  and  _311
REMARK  129  A    between atoms: _310  and  _313
REMARK  130  A    between atoms: _313  and  _314
REMARK  131  A    between atoms: _317  and  _319
REMARK  132  A    between atoms: _319  and  _320
REMARK  133  A    between atoms: _319  and  _322
REMARK  134  A    between atoms: _322  and  _323
REMARK  135  A    between atoms: _326  and  _328
REMARK  136  A    between atoms: _328  and  _329
REMARK  137  A    between atoms: _328  and  _331
REMARK  138  A    between atoms: _331  and  _332
REMARK  139  A    between atoms: _335  and  _337
REMARK  140  A    between atoms: _337  and  _338
REMARK  141  A    between atoms: _337  and  _340
REMARK  142  A    between atoms: _340  and  _341
REMARK  143  A    between atoms: _344  and  _346
REMARK  144  A    between atoms: _346  and  _347
REMARK  145  A    between atoms: _349  and  _351
REMARK  146  A    between atoms: _351  and  _352
REMARK  147  A    between atoms: _355  and  _357
REMARK  148  A    between atoms: _357  and  _358
REMARK  149  A    between atoms: _357  and  _360
REMARK  150  A    between atoms: _360  and  _361
REMARK  151  A    between atoms: _364  and  _366
REMARK  152  A    between atoms: _366  and  _367
REMARK  153  A    between atoms: _366  and  _369
REMARK  154  A    between atoms: _369  and  _370
REMARK  155  A    between atoms: _373  and  _375
REMARK  156  A    between atoms: _375  and  _376
REMARK  157  A    between atoms: _375  and  _378
REMARK  158  A    between atoms: _378  and  _379
REMARK  159  A    between atoms: _382  and  _384
REMARK  160  A    between atoms: _384  and  _385
REMARK  161  A    between atoms: _384  and  _387
REMARK  162  A    between atoms: _390  and  _392
REMARK  163  A    between atoms: _392  and  _393
REMARK  164  A    between atoms: _392  and  _395
REMARK  165  A    between atoms: _395  and  _396
REMARK  166  A    between atoms: _396  and  _397
REMARK  167  A    between atoms: _397  and  _398
REMARK  168  A    between atoms: _398  and  _399
REMARK  169  A    between atoms: _403  and  _405
REMARK  170  A    between atoms: _405  and  _406
REMARK  171  A    between atoms: _405  and  _408
REMARK  172  A    between atoms: _408  and  _409
REMARK  173  A    between atoms: _409  and  _410
REMARK  174  A    between atoms: _412  and  _414
REMARK  175  A    between atoms: _414  and  _415
REMARK  176  A    between atoms: _414  and  _417
REMARK  177  A    between atoms: _417  and  _418
REMARK  178  A    between atoms: _421  and  _423
REMARK  179  A    between atoms: _423  and  _424
REMARK  180  A    between atoms: _426  and  _428
REMARK  181  A    between atoms: _428  and  _429
REMARK  182  A    between atoms: _431  and  _433
REMARK  183  A    between atoms: _433  and  _434
REMARK  184  A    between atoms: _433  and  _436
REMARK  185  A    between atoms: _436  and  _437
REMARK  186  A    between atoms: _440  and  _442
REMARK  187  A    between atoms: _442  and  _443
REMARK  188  A    between atoms: _445  and  _447
REMARK  189  A    between atoms: _447  and  _448
REMARK  190  A    between atoms: _450  and  _452
REMARK  191  A    between atoms: _452  and  _453
REMARK  192  A    between atoms: _452  and  _455
REMARK  193  A    between atoms: _455  and  _456
REMARK  194  A    between atoms: _462  and  _464
REMARK  195  A    between atoms: _464  and  _465
REMARK  196  A    between atoms: _464  and  _467
REMARK  197  A    between atoms: _467  and  _468
REMARK  198  A    between atoms: _471  and  _473
REMARK  199  A    between atoms: _473  and  _474
REMARK  200  A    between atoms: _473  and  _476
REMARK  201  A    between atoms: _479  and  _481
REMARK  202  A    between atoms: _481  and  _482
REMARK  203  A    between atoms: _481  and  _484
REMARK  204  A    between atoms: _484  and  _485
REMARK  205  A    between atoms: _489  and  _490
REMARK  206  A    between atoms: _495  and  _497
REMARK  207  A    between atoms: _497  and  _498
REMARK  208  A    between atoms: _497  and  _500
REMARK  209  A    between atoms: _500  and  _501
REMARK  210  A    between atoms: _505  and  _506
REMARK  211  A    between atoms: _511  and  _513
REMARK  212  A    between atoms: _513  and  _514
REMARK  213  A    between atoms: _513  and  _516
REMARK  214  A    between atoms: _519  and  _521
REMARK  215  A    between atoms: _521  and  _522
REMARK  216  A    between atoms: _521  and  _524
REMARK  217  A    between atoms: _524  and  _525
REMARK  218  A    between atoms: _530  and  _532
REMARK  219  A    between atoms: _532  and  _533
REMARK  220  A    between atoms: _532  and  _535
REMARK  221  A    between atoms: _535  and  _536
REMARK  222  A    between atoms: _539  and  _541
REMARK  223  A    between atoms: _541  and  _542
REMARK  224  A    between atoms: _541  and  _544
REMARK  225  A    between atoms: _544  and  _545
REMARK  226  A    between atoms: _548  and  _550
REMARK  227  A    between atoms: _550  and  _551
REMARK  228  A    between atoms: _553  and  _555
REMARK  229  A    between atoms: _555  and  _556
REMARK  230  A    between atoms: _555  and  _558
REMARK  231  A    between atoms: _558  and  _559
REMARK  232  A    between atoms: _559  and  _560
REMARK  233  A    between atoms: _560  and  _561
REMARK                            x       y       z     vdW  Elec       q    Type
REMARK                         _______ _______ _______ _____ _____    ______ ____
ROOT
ATOM      1  O   HOH     1       0.245  24.613   4.571  0.00  0.00    +0.000 OA
ENDROOT
TORSDOF 0
REMARK  Name = ../refined-set-2016/1ec1/1ec1_pocket.pdb
REMARK  233 active torsions:
REMARK  status: ('A' for Active; 'I' for Inactive)
REMARK    1  A    between atoms: _1  and  _3
REMARK    2  A    between atoms: _3  and  _4
REMARK    3  A    between atoms: _3  and  _6
REMARK    4  A    between atoms: _6  and  _7
REMARK    5  A    between atoms: _7  and  _8
REMARK    6  A    between atoms: _8  and  _9
REMARK    7  A    between atoms: _18  and  _20
REMARK    8  A    between atoms: _20  and  _21
REMARK    9  A    between atoms: _20  and  _23
REMARK   10  A    between atoms: _23  and  _24
REMARK   11  A    between atoms: _27  and  _29
REMARK   12  A    between atoms: _29  and  _30
REMARK   13  A    between atoms: _29  and  _32
REMARK   14  A    between atoms: _32  and  _33
REMARK   15  A    between atoms: _36  and  _38
REMARK   16  A    between atoms: _38  and  _39
REMARK   17  A    between atoms: _38  and  _41
REMARK   18  A    between atoms: _41  and  _42
REMARK   19  A    between atoms: _45  and  _47
REMARK   20  A    between atoms: _47  and  _48
REMARK   21  A    between atoms: _47  and  _50
REMARK   22  A    between atoms: _50  and  _51
REMARK   23  A    between atoms: _54  and  _56
REMARK   24  A    between atoms: _56  and  _57
REMARK   25  A    between atoms: _56  and  _59
REMARK   26  A    between atoms: _59  and  _60
REMARK   27  A    between atoms: _63  and  _65
REMARK   28  A    between atoms: _65  and  _66
REMARK   29  A    between atoms: _68  and  _70
REMARK   30  A    between atoms: _70  and  _71
REMARK   31  A    between atoms: _74  and  _76
REMARK   32  A    between atoms: _76  and  _77
REMARK   33  A    between atoms: _76  and  _79
REMARK   34  A    between atoms: _79  and  _80
REMARK   35  A    between atoms: _83  and  _85
REMARK   36  A    between atoms: _85  and  _86
REMARK   37  A    between atoms: _85  and  _88
REMARK   38  A    between atoms: _88  and  _89
REMARK   39  A    between atoms: _92  and  _94
REMARK   40  A    between atoms: _94  and  _95
REMARK   41  A    between atoms: _94  and  _97
REMARK   42  A    between atoms: _97  and  _98
REMARK   43  A    between atoms: _101  and  _103
REMARK   44  A    between atoms: _103  and  _104
REMARK   45  A    between atoms: _103  and  _106
REMARK   46  A    between atoms: _109  and  _111
REMARK   47  A    between atoms: _111  and  _112
REMARK   48  A    between atoms: _111  and  _114
REMARK   49  A    between atoms: _114  and  _115
REMARK   50  A    between atoms: _115  and  _116
REMARK   51  A    between atoms: _116  and  _117
REMARK   52  A    between atoms: _117  and  _118
REMARK   53  A    between atoms: _122  and  _124
REMARK   54  A    between atoms: _124  and  _125
REMARK   55  A    between atoms: _124  and  _127
REMARK   56  A    between atoms: _127  and  _128
REMARK   57  A    between atoms: _128  and  _129
REMARK   58  A    between atoms: _131  and  _133
REMARK   59  A    between atoms: _133  and  _134
REMARK   60  A    between atoms: _133  and  _136
REMARK   61  A    between atoms: _136  and  _137
REMARK   62  A    between atoms: _140  and  _142
REMARK   63  A    between atoms: _142  and  _143
REMARK   64  A    between atoms: _145  and  _147
REMARK   65  A    between atoms: _147  and  _148
REMARK   66  A    between atoms: _150  and  _152
REMARK   67  A    between atoms: _152  and  _153
REMARK   68  A    between atoms: _152  and  _155
REMARK   69  A    between atoms: _155  and  _156
REMARK   70  A    between atoms: _159  and  _161
REMARK   71  A    between atoms: _161  and  _162
REMARK   72  A    between atoms: _164  and  _166
REMARK   73  A    between atoms: _166  and  _167
REMARK   74  A    between atoms: _169  and  _171
REMARK   75  A    between atoms: _171  and  _172
REMARK   76  A    between atoms: _171  and  _174
REMARK   77  A    between atoms: _174  and  _175
REMARK   78  A    between atoms: _181  and  _183
REMARK   79  A    between atoms: _183  and  _184
REMARK   80  A    between atoms: _183  and  _186
REMARK   81  A    between atoms: _186  and  _187
REMARK   82  A    between atoms: _190  and  _192
REMARK   83  A    between atoms: _192  and  _193
REMARK   84  A    between atoms: _192  and  _195
REMARK   85  A    between atoms: _198  and  _200
REMARK   86  A    between atoms: _200  and  _201
REMARK   87  A    between atoms: _200  and  _203
REMARK   88  A    between atoms: _203  and  _204
REMARK   89  A    between atoms: _207  and  _209
REMARK   90  A    between atoms: _209  and  _210
REMARK   91  A    between atoms: _209  and  _212
REMARK   92  A    between atoms: _212  and  _213
REMARK   93  A    between atoms: _217  and  _218
REMARK   94  A    between atoms: _223  and  _225
REMARK   95  A    between atoms: _225  and  _226
REMARK   96  A    between atoms: _225  and  _228
REMARK   97  A    between atoms: _231  and  _233
REMARK   98  A    between atoms: _233  and  _234
REMARK   99  A    between atoms: _233  and  _236
REMARK  100  A    between atoms: _236  and  _237
REMARK  101  A    between atoms: _242  and  _244
REMARK  102  A    between atoms: _244  and  _245
REMARK  103  A    between atoms: _244  and  _247
REMARK  104  A    between atoms: _247  and  _248
REMARK  105  A    between atoms: _251  and  _253
REMARK  106  A    between atoms: _253  and  _254
REMARK  107  A    between atoms: _253  and  _256
REMARK  108  A    between atoms: _256  and  _257
REMARK  109  A    between atoms: _260  and  _262
REMARK  110  A    between atoms: _262  and  _263
REMARK  111  A    between atoms: _265  and  _267
REMARK  112  A    between atoms: _267  and  _268
REMARK  113  A    between atoms: _267  and  _270
REMARK  114  A    between atoms: _270  and  _271
REMARK  115  A    between atoms: _271  and  _272
REMARK  116  A    between atoms: _272  and  _273
REMARK  117  A    between atoms: _282  and  _284
REMARK  118  A    between atoms: _284  and  _285
REMARK  119  A    between atoms: _284  and  _287
REMARK  120  A    between atoms: _287  and  _288
REMARK  121  A    between atoms: _288  and  _289
REMARK  122  A    between atoms: _289  and  _290
REMARK  123  A    between atoms: _299  and  _301
REMARK  124  A    between atoms: _301  and  _302
REMARK  125  A    between atoms: _301  and  _304
REMARK  126  A    between atoms: _304  and  _305
REMARK  127  A    between atoms: _308  and  _310
REMARK  128  A    between atoms: _310  and  _311
REMARK  129  A    between atoms: _310  and  _313
REMARK  130  A    between atoms: _313  and  _314
REMARK  131  A    between atoms: _317  and  _319
REMARK  132  A    between atoms: _319  and  _320
REMARK  133  A    between atoms: _319  and  _322
REMARK  134  A    between atoms: _322  and  _323
REMARK  135  A    between atoms: _326  and  _328
REMARK  136  A    between atoms: _328  and  _329
REMARK  137  A    between atoms: _328  and  _331
REMARK  138  A    between atoms: _331  and  _332
REMARK  139  A    between atoms: _335  and  _337
REMARK  140  A    between atoms: _337  and  _338
REMARK  141  A    between atoms: _337  and  _340
REMARK  142  A    between atoms: _340  and  _341
REMARK  143  A    between atoms: _344  and  _346
REMARK  144  A    between atoms: _346  and  _347
REMARK  145  A    between atoms: _349  and  _351
REMARK  146  A    between atoms: _351  and  _352
REMARK  147  A    between atoms: _355  and  _357
REMARK  148  A    between atoms: _357  and  _358
REMARK  149  A    between atoms: _357  and  _360
REMARK  150  A    between atoms: _360  and  _361
REMARK  151  A    between atoms: _364  and  _366
REMARK  152  A    between atoms: _366  and  _367
REMARK  153  A    between atoms: _366  and  _369
REMARK  154  A    between atoms: _369  and  _370
REMARK  155  A    between atoms: _373  and  _375
REMARK  156  A    between atoms: _375  and  _376
REMARK  157  A    between atoms: _375  and  _378
REMARK  158  A    between atoms: _378  and  _379
REMARK  159  A    between atoms: _382  and  _384
REMARK  160  A    between atoms: _384  and  _385
REMARK  161  A    between atoms: _384  and  _387
REMARK  162  A    between atoms: _390  and  _392
REMARK  163  A    between atoms: _392  and  _393
REMARK  164  A    between atoms: _392  and  _395
REMARK  165  A    between atoms: _395  and  _396
REMARK  166  A    between atoms: _396  and  _397
REMARK  167  A    between atoms: _397  and  _398
REMARK  168  A    between atoms: _398  and  _399
REMARK  169  A    between atoms: _403  and  _405
REMARK  170  A    between atoms: _405  and  _406
REMARK  171  A    between atoms: _405  and  _408
REMARK  172  A    between atoms: _408  and  _409
REMARK  173  A    between atoms: _409  and  _410
REMARK  174  A    between atoms: _412  and  _414
REMARK  175  A    between atoms: _414  and  _415
REMARK  176  A    between atoms: _414  and  _417
REMARK  177  A    between atoms: _417  and  _418
REMARK  178  A    between atoms: _421  and  _423
REMARK  179  A    between atoms: _423  and  _424
REMARK  180  A    between atoms: _426  and  _428
REMARK  181  A    between atoms: _428  and  _429
REMARK  182  A    between atoms: _431  and  _433
REMARK  183  A    between atoms: _433  and  _434
REMARK  184  A    between atoms: _433  and  _436
REMARK  185  A    between atoms: _436  and  _437
REMARK  186  A    between atoms: _440  and  _442
REMARK  187  A    between atoms: _442  and  _443
REMARK  188  A    between atoms: _445  and  _447
REMARK  189  A    between atoms: _447  and  _448
REMARK  190  A    between atoms: _450  and  _452
REMARK  191  A    between atoms: _452  and  _453
REMARK  192  A    between atoms: _452  and  _455
REMARK  193  A    between atoms: _455  and  _456
REMARK  194  A    between atoms: _462  and  _464
REMARK  195  A    between atoms: _464  and  _465
REMARK  196  A    between atoms: _464  and  _467
REMARK  197  A    between atoms: _467  and  _468
REMARK  198  A    between atoms: _471  and  _473
REMARK  199  A    between atoms: _473  and  _474
REMARK  200  A    between atoms: _473  and  _476
REMARK  201  A    between atoms: _479  and  _481
REMARK  202  A    between atoms: _481  and  _482
REMARK  203  A    between atoms: _481  and  _484
REMARK  204  A    between atoms: _484  and  _485
REMARK  205  A    between atoms: _489  and  _490
REMARK  206  A    between atoms: _495  and  _497
REMARK  207  A    between atoms: _497  and  _498
REMARK  208  A    between atoms: _497  and  _500
REMARK  209  A    between atoms: _500  and  _501
REMARK  210  A    between atoms: _505  and  _506
REMARK  211  A    between atoms: _511  and  _513
REMARK  212  A    between atoms: _513  and  _514
REMARK  213  A    between atoms: _513  and  _516
REMARK  214  A    between atoms: _519  and  _521
REMARK  215  A    between atoms: _521  and  _522
REMARK  216  A    between atoms: _521  and  _524
REMARK  217  A    between atoms: _524  and  _525
REMARK  218  A    between atoms: _530  and  _532
REMARK  219  A    between atoms: _532  and  _533
REMARK  220  A    between atoms: _532  and  _535
REMARK  221  A    between atoms: _535  and  _536
REMARK  222  A    between atoms: _539  and  _541
REMARK  223  A    between atoms: _541  and  _542
REMARK  224  A    between atoms: _541  and  _544
REMARK  225  A    between atoms: _544  and  _545
REMARK  226  A    between atoms: _548  and  _550
REMARK  227  A    between atoms: _550  and  _551
REMARK  228  A    between atoms: _553  and  _555
REMARK  229  A    between atoms: _555  and  _556
REMARK  230  A    between atoms: _555  and  _558
REMARK  231  A    between atoms: _558  and  _559
REMARK  232  A    between atoms: _559  and  _560
REMARK  233  A    between atoms: _560  and  _561
REMARK                            x       y       z     vdW  Elec       q    Type
REMARK                         _______ _______ _______ _____ _____    ______ ____
ROOT
ATOM      1  O   HOH     1       2.778  27.944   3.849  0.00  0.00    +0.000 OA
ENDROOT
TORSDOF 0
REMARK  Name = ../refined-set-2016/1ec1/1ec1_pocket.pdb
REMARK  233 active torsions:
REMARK  status: ('A' for Active; 'I' for Inactive)
REMARK    1  A    between atoms: _1  and  _3
REMARK    2  A    between atoms: _3  and  _4
REMARK    3  A    between atoms: _3  and  _6
REMARK    4  A    between atoms: _6  and  _7
REMARK    5  A    between atoms: _7  and  _8
REMARK    6  A    between atoms: _8  and  _9
REMARK    7  A    between atoms: _18  and  _20
REMARK    8  A    between atoms: _20  and  _21
REMARK    9  A    between atoms: _20  and  _23
REMARK   10  A    between atoms: _23  and  _24
REMARK   11  A    between atoms: _27  and  _29
REMARK   12  A    between atoms: _29  and  _30
REMARK   13  A    between atoms: _29  and  _32
REMARK   14  A    between atoms: _32  and  _33
REMARK   15  A    between atoms: _36  and  _38
REMARK   16  A    between atoms: _38  and  _39
REMARK   17  A    between atoms: _38  and  _41
REMARK   18  A    between atoms: _41  and  _42
REMARK   19  A    between atoms: _45  and  _47
REMARK   20  A    between atoms: _47  and  _48
REMARK   21  A    between atoms: _47  and  _50
REMARK   22  A    between atoms: _50  and  _51
REMARK   23  A    between atoms: _54  and  _56
REMARK   24  A    between atoms: _56  and  _57
REMARK   25  A    between atoms: _56  and  _59
REMARK   26  A    between atoms: _59  and  _60
REMARK   27  A    between atoms: _63  and  _65
REMARK   28  A    between atoms: _65  and  _66
REMARK   29  A    between atoms: _68  and  _70
REMARK   30  A    between atoms: _70  and  _71
REMARK   31  A    between atoms: _74  and  _76
REMARK   32  A    between atoms: _76  and  _77
REMARK   33  A    between atoms: _76  and  _79
REMARK   34  A    between atoms: _79  and  _80
REMARK   35  A    between atoms: _83  and  _85
REMARK   36  A    between atoms: _85  and  _86
REMARK   37  A    between atoms: _85  and  _88
REMARK   38  A    between atoms: _88  and  _89
REMARK   39  A    between atoms: _92  and  _94
REMARK   40  A    between atoms: _94  and  _95
REMARK   41  A    between atoms: _94  and  _97
REMARK   42  A    between atoms: _97  and  _98
REMARK   43  A    between atoms: _101  and  _103
REMARK   44  A    between atoms: _103  and  _104
REMARK   45  A    between atoms: _103  and  _106
REMARK   46  A    between atoms: _109  and  _111
REMARK   47  A    between atoms: _111  and  _112
REMARK   48  A    between atoms: _111  and  _114
REMARK   49  A    between atoms: _114  and  _115
REMARK   50  A    between atoms: _115  and  _116
REMARK   51  A    between atoms: _116  and  _117
REMARK   52  A    between atoms: _117  and  _118
REMARK   53  A    between atoms: _122  and  _124
REMARK   54  A    between atoms: _124  and  _125
REMARK   55  A    between atoms: _124  and  _127
REMARK   56  A    between atoms: _127  and  _128
REMARK   57  A    between atoms: _128  and  _129
REMARK   58  A    between atoms: _131  and  _133
REMARK   59  A    between atoms: _133  and  _134
REMARK   60  A    between atoms: _133  and  _136
REMARK   61  A    between atoms: _136  and  _137
REMARK   62  A    between atoms: _140  and  _142
REMARK   63  A    between atoms: _142  and  _143
REMARK   64  A    between atoms: _145  and  _147
REMARK   65  A    between atoms: _147  and  _148
REMARK   66  A    between atoms: _150  and  _152
REMARK   67  A    between atoms: _152  and  _153
REMARK   68  A    between atoms: _152  and  _155
REMARK   69  A    between atoms: _155  and  _156
REMARK   70  A    between atoms: _159  and  _161
REMARK   71  A    between atoms: _161  and  _162
REMARK   72  A    between atoms: _164  and  _166
REMARK   73  A    between atoms: _166  and  _167
REMARK   74  A    between atoms: _169  and  _171
REMARK   75  A    between atoms: _171  and  _172
REMARK   76  A    between atoms: _171  and  _174
REMARK   77  A    between atoms: _174  and  _175
REMARK   78  A    between atoms: _181  and  _183
REMARK   79  A    between atoms: _183  and  _184
REMARK   80  A    between atoms: _183  and  _186
REMARK   81  A    between atoms: _186  and  _187
REMARK   82  A    between atoms: _190  and  _192
REMARK   83  A    between atoms: _192  and  _193
REMARK   84  A    between atoms: _192  and  _195
REMARK   85  A    between atoms: _198  and  _200
REMARK   86  A    between atoms: _200  and  _201
REMARK   87  A    between atoms: _200  and  _203
REMARK   88  A    between atoms: _203  and  _204
REMARK   89  A    between atoms: _207  and  _209
REMARK   90  A    between atoms: _209  and  _210
REMARK   91  A    between atoms: _209  and  _212
REMARK   92  A    between atoms: _212  and  _213
REMARK   93  A    between atoms: _217  and  _218
REMARK   94  A    between atoms: _223  and  _225
REMARK   95  A    between atoms: _225  and  _226
REMARK   96  A    between atoms: _225  and  _228
REMARK   97  A    between atoms: _231  and  _233
REMARK   98  A    between atoms: _233  and  _234
REMARK   99  A    between atoms: _233  and  _236
REMARK  100  A    between atoms: _236  and  _237
REMARK  101  A    between atoms: _242  and  _244
REMARK  102  A    between atoms: _244  and  _245
REMARK  103  A    between atoms: _244  and  _247
REMARK  104  A    between atoms: _247  and  _248
REMARK  105  A    between atoms: _251  and  _253
REMARK  106  A    between atoms: _253  and  _254
REMARK  107  A    between atoms: _253  and  _256
REMARK  108  A    between atoms: _256  and  _257
REMARK  109  A    between atoms: _260  and  _262
REMARK  110  A    between atoms: _262  and  _263
REMARK  111  A    between atoms: _265  and  _267
REMARK  112  A    between atoms: _267  and  _268
REMARK  113  A    between atoms: _267  and  _270
REMARK  114  A    between atoms: _270  and  _271
REMARK  115  A    between atoms: _271  and  _272
REMARK  116  A    between atoms: _272  and  _273
REMARK  117  A    between atoms: _282  and  _284
REMARK  118  A    between atoms: _284  and  _285
REMARK  119  A    between atoms: _284  and  _287
REMARK  120  A    between atoms: _287  and  _288
REMARK  121  A    between atoms: _288  and  _289
REMARK  122  A    between atoms: _289  and  _290
REMARK  123  A    between atoms: _299  and  _301
REMARK  124  A    between atoms: _301  and  _302
REMARK  125  A    between atoms: _301  and  _304
REMARK  126  A    between atoms: _304  and  _305
REMARK  127  A    between atoms: _308  and  _310
REMARK  128  A    between atoms: _310  and  _311
REMARK  129  A    between atoms: _310  and  _313
REMARK  130  A    between atoms: _313  and  _314
REMARK  131  A    between atoms: _317  and  _319
REMARK  132  A    between atoms: _319  and  _320
REMARK  133  A    between atoms: _319  and  _322
REMARK  134  A    between atoms: _322  and  _323
REMARK  135  A    between atoms: _326  and  _328
REMARK  136  A    between atoms: _328  and  _329
REMARK  137  A    between atoms: _328  and  _331
REMARK  138  A    between atoms: _331  and  _332
REMARK  139  A    between atoms: _335  and  _337
REMARK  140  A    between atoms: _337  and  _338
REMARK  141  A    between atoms: _337  and  _340
REMARK  142  A    between atoms: _340  and  _341
REMARK  143  A    between atoms: _344  and  _346
REMARK  144  A    between atoms: _346  and  _347
REMARK  145  A    between atoms: _349  and  _351
REMARK  146  A    between atoms: _351  and  _352
REMARK  147  A    between atoms: _355  and  _357
REMARK  148  A    between atoms: _357  and  _358
REMARK  149  A    between atoms: _357  and  _360
REMARK  150  A    between atoms: _360  and  _361
REMARK  151  A    between atoms: _364  and  _366
REMARK  152  A    between atoms: _366  and  _367
REMARK  153  A    between atoms: _366  and  _369
REMARK  154  A    between atoms: _369  and  _370
REMARK  155  A    between atoms: _373  and  _375
REMARK  156  A    between atoms: _375  and  _376
REMARK  157  A    between atoms: _375  and  _378
REMARK  158  A    between atoms: _378  and  _379
REMARK  159  A    between atoms: _382  and  _384
REMARK  160  A    between atoms: _384  and  _385
REMARK  161  A    between atoms: _384  and  _387
REMARK  162  A    between atoms: _390  and  _392
REMARK  163  A    between atoms: _392  and  _393
REMARK  164  A    between atoms: _392  and  _395
REMARK  165  A    between atoms: _395  and  _396
REMARK  166  A    between atoms: _396  and  _397
REMARK  167  A    between atoms: _397  and  _398
REMARK  168  A    between atoms: _398  and  _399
REMARK  169  A    between atoms: _403  and  _405
REMARK  170  A    between atoms: _405  and  _406
REMARK  171  A    between atoms: _405  and  _408
REMARK  172  A    between atoms: _408  and  _409
REMARK  173  A    between atoms: _409  and  _410
REMARK  174  A    between atoms: _412  and  _414
REMARK  175  A    between atoms: _414  and  _415
REMARK  176  A    between atoms: _414  and  _417
REMARK  177  A    between atoms: _417  and  _418
REMARK  178  A    between atoms: _421  and  _423
REMARK  179  A    between atoms: _423  and  _424
REMARK  180  A    between atoms: _426  and  _428
REMARK  181  A    between atoms: _428  and  _429
REMARK  182  A    between atoms: _431  and  _433
REMARK  183  A    between atoms: _433  and  _434
REMARK  184  A    between atoms: _433  and  _436
REMARK  185  A    between atoms: _436  and  _437
REMARK  186  A    between atoms: _440  and  _442
REMARK  187  A    between atoms: _442  and  _443
REMARK  188  A    between atoms: _445  and  _447
REMARK  189  A    between atoms: _447  and  _448
REMARK  190  A    between atoms: _450  and  _452
REMARK  191  A    between atoms: _452  and  _453
REMARK  192  A    between atoms: _452  and  _455
REMARK  193  A    between atoms: _455  and  _456
REMARK  194  A    between atoms: _462  and  _464
REMARK  195  A    between atoms: _464  and  _465
REMARK  196  A    between atoms: _464  and  _467
REMARK  197  A    between atoms: _467  and  _468
REMARK  198  A    between atoms: _471  and  _473
REMARK  199  A    between atoms: _473  and  _474
REMARK  200  A    between atoms: _473  and  _476
REMARK  201  A    between atoms: _479  and  _481
REMARK  202  A    between atoms: _481  and  _482
REMARK  203  A    between atoms: _481  and  _484
REMARK  204  A    between atoms: _484  and  _485
REMARK  205  A    between atoms: _489  and  _490
REMARK  206  A    between atoms: _495  and  _497
REMARK  207  A    between atoms: _497  and  _498
REMARK  208  A    between atoms: _497  and  _500
REMARK  209  A    between atoms: _500  and  _501
REMARK  210  A    between atoms: _505  and  _506
REMARK  211  A    between atoms: _511  and  _513
REMARK  212  A    between atoms: _513  and  _514
REMARK  213  A    between atoms: _513  and  _516
REMARK  214  A    between atoms: _519  and  _521
REMARK  215  A    between atoms: _521  and  _522
REMARK  216  A    between atoms: _521  and  _524
REMARK  217  A    between atoms: _524  and  _525
REMARK  218  A    between atoms: _530  and  _532
REMARK  219  A    between atoms: _532  and  _533
REMARK  220  A    between atoms: _532  and  _535
REMARK  221  A    between atoms: _535  and  _536
REMARK  222  A    between atoms: _539  and  _541
REMARK  223  A    between atoms: _541  and  _542
REMARK  224  A    between atoms: _541  and  _544
REMARK  225  A    between atoms: _544  and  _545
REMARK  226  A    between atoms: _548  and  _550
REMARK  227  A    between atoms: _550  and  _551
REMARK  228  A    between atoms: _553  and  _555
REMARK  229  A    between atoms: _555  and  _556
REMARK  230  A    between atoms: _555  and  _558
REMARK  231  A    between atoms: _558  and  _559
REMARK  232  A    between atoms: _559  and  _560
REMARK  233  A    between atoms: _560  and  _561
REMARK                            x       y       z     vdW  Elec       q    Type
REMARK                         _______ _______ _______ _____ _____    ______ ____
ROOT
ATOM      1  O   HOH     1      23.685  15.660   1.986  0.00  0.00    +0.000 OA
ENDROOT
TORSDOF 0
REMARK  Name = ../refined-set-2016/1ec1/1ec1_pocket.pdb
REMARK  233 active torsions:
REMARK  status: ('A' for Active; 'I' for Inactive)
REMARK    1  A    between atoms: _1  and  _3
REMARK    2  A    between atoms: _3  and  _4
REMARK    3  A    between atoms: _3  and  _6
REMARK    4  A    between atoms: _6  and  _7
REMARK    5  A    between atoms: _7  and  _8
REMARK    6  A    between atoms: _8  and  _9
REMARK    7  A    between atoms: _18  and  _20
REMARK    8  A    between atoms: _20  and  _21
REMARK    9  A    between atoms: _20  and  _23
REMARK   10  A    between atoms: _23  and  _24
REMARK   11  A    between atoms: _27  and  _29
REMARK   12  A    between atoms: _29  and  _30
REMARK   13  A    between atoms: _29  and  _32
REMARK   14  A    between atoms: _32  and  _33
REMARK   15  A    between atoms: _36  and  _38
REMARK   16  A    between atoms: _38  and  _39
REMARK   17  A    between atoms: _38  and  _41
REMARK   18  A    between atoms: _41  and  _42
REMARK   19  A    between atoms: _45  and  _47
REMARK   20  A    between atoms: _47  and  _48
REMARK   21  A    between atoms: _47  and  _50
REMARK   22  A    between atoms: _50  and  _51
REMARK   23  A    between atoms: _54  and  _56
REMARK   24  A    between atoms: _56  and  _57
REMARK   25  A    between atoms: _56  and  _59
REMARK   26  A    between atoms: _59  and  _60
REMARK   27  A    between atoms: _63  and  _65
REMARK   28  A    between atoms: _65  and  _66
REMARK   29  A    between atoms: _68  and  _70
REMARK   30  A    between atoms: _70  and  _71
REMARK   31  A    between atoms: _74  and  _76
REMARK   32  A    between atoms: _76  and  _77
REMARK   33  A    between atoms: _76  and  _79
REMARK   34  A    between atoms: _79  and  _80
REMARK   35  A    between atoms: _83  and  _85
REMARK   36  A    between atoms: _85  and  _86
REMARK   37  A    between atoms: _85  and  _88
REMARK   38  A    between atoms: _88  and  _89
REMARK   39  A    between atoms: _92  and  _94
REMARK   40  A    between atoms: _94  and  _95
REMARK   41  A    between atoms: _94  and  _97
REMARK   42  A    between atoms: _97  and  _98
REMARK   43  A    between atoms: _101  and  _103
REMARK   44  A    between atoms: _103  and  _104
REMARK   45  A    between atoms: _103  and  _106
REMARK   46  A    between atoms: _109  and  _111
REMARK   47  A    between atoms: _111  and  _112
REMARK   48  A    between atoms: _111  and  _114
REMARK   49  A    between atoms: _114  and  _115
REMARK   50  A    between atoms: _115  and  _116
REMARK   51  A    between atoms: _116  and  _117
REMARK   52  A    between atoms: _117  and  _118
REMARK   53  A    between atoms: _122  and  _124
REMARK   54  A    between atoms: _124  and  _125
REMARK   55  A    between atoms: _124  and  _127
REMARK   56  A    between atoms: _127  and  _128
REMARK   57  A    between atoms: _128  and  _129
REMARK   58  A    between atoms: _131  and  _133
REMARK   59  A    between atoms: _133  and  _134
REMARK   60  A    between atoms: _133  and  _136
REMARK   61  A    between atoms: _136  and  _137
REMARK   62  A    between atoms: _140  and  _142
REMARK   63  A    between atoms: _142  and  _143
REMARK   64  A    between atoms: _145  and  _147
REMARK   65  A    between atoms: _147  and  _148
REMARK   66  A    between atoms: _150  and  _152
REMARK   67  A    between atoms: _152  and  _153
REMARK   68  A    between atoms: _152  and  _155
REMARK   69  A    between atoms: _155  and  _156
REMARK   70  A    between atoms: _159  and  _161
REMARK   71  A    between atoms: _161  and  _162
REMARK   72  A    between atoms: _164  and  _166
REMARK   73  A    between atoms: _166  and  _167
REMARK   74  A    between atoms: _169  and  _171
REMARK   75  A    between atoms: _171  and  _172
REMARK   76  A    between atoms: _171  and  _174
REMARK   77  A    between atoms: _174  and  _175
REMARK   78  A    between atoms: _181  and  _183
REMARK   79  A    between atoms: _183  and  _184
REMARK   80  A    between atoms: _183  and  _186
REMARK   81  A    between atoms: _186  and  _187
REMARK   82  A    between atoms: _190  and  _192
REMARK   83  A    between atoms: _192  and  _193
REMARK   84  A    between atoms: _192  and  _195
REMARK   85  A    between atoms: _198  and  _200
REMARK   86  A    between atoms: _200  and  _201
REMARK   87  A    between atoms: _200  and  _203
REMARK   88  A    between atoms: _203  and  _204
REMARK   89  A    between atoms: _207  and  _209
REMARK   90  A    between atoms: _209  and  _210
REMARK   91  A    between atoms: _209  and  _212
REMARK   92  A    between atoms: _212  and  _213
REMARK   93  A    between atoms: _217  and  _218
REMARK   94  A    between atoms: _223  and  _225
REMARK   95  A    between atoms: _225  and  _226
REMARK   96  A    between atoms: _225  and  _228
REMARK   97  A    between atoms: _231  and  _233
REMARK   98  A    between atoms: _233  and  _234
REMARK   99  A    between atoms: _233  and  _236
REMARK  100  A    between atoms: _236  and  _237
REMARK  101  A    between atoms: _242  and  _244
REMARK  102  A    between atoms: _244  and  _245
REMARK  103  A    between atoms: _244  and  _247
REMARK  104  A    between atoms: _247  and  _248
REMARK  105  A    between atoms: _251  and  _253
REMARK  106  A    between atoms: _253  and  _254
REMARK  107  A    between atoms: _253  and  _256
REMARK  108  A    between atoms: _256  and  _257
REMARK  109  A    between atoms: _260  and  _262
REMARK  110  A    between atoms: _262  and  _263
REMARK  111  A    between atoms: _265  and  _267
REMARK  112  A    between atoms: _267  and  _268
REMARK  113  A    between atoms: _267  and  _270
REMARK  114  A    between atoms: _270  and  _271
REMARK  115  A    between atoms: _271  and  _272
REMARK  116  A    between atoms: _272  and  _273
REMARK  117  A    between atoms: _282  and  _284
REMARK  118  A    between atoms: _284  and  _285
REMARK  119  A    between atoms: _284  and  _287
REMARK  120  A    between atoms: _287  and  _288
REMARK  121  A    between atoms: _288  and  _289
REMARK  122  A    between atoms: _289  and  _290
REMARK  123  A    between atoms: _299  and  _301
REMARK  124  A    between atoms: _301  and  _302
REMARK  125  A    between atoms: _301  and  _304
REMARK  126  A    between atoms: _304  and  _305
REMARK  127  A    between atoms: _308  and  _310
REMARK  128  A    between atoms: _310  and  _311
REMARK  129  A    between atoms: _310  and  _313
REMARK  130  A    between atoms: _313  and  _314
REMARK  131  A    between atoms: _317  and  _319
REMARK  132  A    between atoms: _319  and  _320
REMARK  133  A    between atoms: _319  and  _322
REMARK  134  A    between atoms: _322  and  _323
REMARK  135  A    between atoms: _326  and  _328
REMARK  136  A    between atoms: _328  and  _329
REMARK  137  A    between atoms: _328  and  _331
REMARK  138  A    between atoms: _331  and  _332
REMARK  139  A    between atoms: _335  and  _337
REMARK  140  A    between atoms: _337  and  _338
REMARK  141  A    between atoms: _337  and  _340
REMARK  142  A    between atoms: _340  and  _341
REMARK  143  A    between atoms: _344  and  _346
REMARK  144  A    between atoms: _346  and  _347
REMARK  145  A    between atoms: _349  and  _351
REMARK  146  A    between atoms: _351  and  _352
REMARK  147  A    between atoms: _355  and  _357
REMARK  148  A    between atoms: _357  and  _358
REMARK  149  A    between atoms: _357  and  _360
REMARK  150  A    between atoms: _360  and  _361
REMARK  151  A    between atoms: _364  and  _366
REMARK  152  A    between atoms: _366  and  _367
REMARK  153  A    between atoms: _366  and  _369
REMARK  154  A    between atoms: _369  and  _370
REMARK  155  A    between atoms: _373  and  _375
REMARK  156  A    between atoms: _375  and  _376
REMARK  157  A    between atoms: _375  and  _378
REMARK  158  A    between atoms: _378  and  _379
REMARK  159  A    between atoms: _382  and  _384
REMARK  160  A    between atoms: _384  and  _385
REMARK  161  A    between atoms: _384  and  _387
REMARK  162  A    between atoms: _390  and  _392
REMARK  163  A    between atoms: _392  and  _393
REMARK  164  A    between atoms: _392  and  _395
REMARK  165  A    between atoms: _395  and  _396
REMARK  166  A    between atoms: _396  and  _397
REMARK  167  A    between atoms: _397  and  _398
REMARK  168  A    between atoms: _398  and  _399
REMARK  169  A    between atoms: _403  and  _405
REMARK  170  A    between atoms: _405  and  _406
REMARK  171  A    between atoms: _405  and  _408
REMARK  172  A    between atoms: _408  and  _409
REMARK  173  A    between atoms: _409  and  _410
REMARK  174  A    between atoms: _412  and  _414
REMARK  175  A    between atoms: _414  and  _415
REMARK  176  A    between atoms: _414  and  _417
REMARK  177  A    between atoms: _417  and  _418
REMARK  178  A    between atoms: _421  and  _423
REMARK  179  A    between atoms: _423  and  _424
REMARK  180  A    between atoms: _426  and  _428
REMARK  181  A    between atoms: _428  and  _429
REMARK  182  A    between atoms: _431  and  _433
REMARK  183  A    between atoms: _433  and  _434
REMARK  184  A    between atoms: _433  and  _436
REMARK  185  A    between atoms: _436  and  _437
REMARK  186  A    between atoms: _440  and  _442
REMARK  187  A    between atoms: _442  and  _443
REMARK  188  A    between atoms: _445  and  _447
REMARK  189  A    between atoms: _447  and  _448
REMARK  190  A    between atoms: _450  and  _452
REMARK  191  A    between atoms: _452  and  _453
REMARK  192  A    between atoms: _452  and  _455
REMARK  193  A    between atoms: _455  and  _456
REMARK  194  A    between atoms: _462  and  _464
REMARK  195  A    between atoms: _464  and  _465
REMARK  196  A    between atoms: _464  and  _467
REMARK  197  A    between atoms: _467  and  _468
REMARK  198  A    between atoms: _471  and  _473
REMARK  199  A    between atoms: _473  and  _474
REMARK  200  A    between atoms: _473  and  _476
REMARK  201  A    between atoms: _479  and  _481
REMARK  202  A    between atoms: _481  and  _482
REMARK  203  A    between atoms: _481  and  _484
REMARK  204  A    between atoms: _484  and  _485
REMARK  205  A    between atoms: _489  and  _490
REMARK  206  A    between atoms: _495  and  _497
REMARK  207  A    between atoms: _497  and  _498
REMARK  208  A    between atoms: _497  and  _500
REMARK  209  A    between atoms: _500  and  _501
REMARK  210  A    between atoms: _505  and  _506
REMARK  211  A    between atoms: _511  and  _513
REMARK  212  A    between atoms: _513  and  _514
REMARK  213  A    between atoms: _513  and  _516
REMARK  214  A    between atoms: _519  and  _521
REMARK  215  A    between atoms: _521  and  _522
REMARK  216  A    between atoms: _521  and  _524
REMARK  217  A    between atoms: _524  and  _525
REMARK  218  A    between atoms: _530  and  _532
REMARK  219  A    between atoms: _532  and  _533
REMARK  220  A    between atoms: _532  and  _535
REMARK  221  A    between atoms: _535  and  _536
REMARK  222  A    between atoms: _539  and  _541
REMARK  223  A    between atoms: _541  and  _542
REMARK  224  A    between atoms: _541  and  _544
REMARK  225  A    between atoms: _544  and  _545
REMARK  226  A    between atoms: _548  and  _550
REMARK  227  A    between atoms: _550  and  _551
REMARK  228  A    between atoms: _553  and  _555
REMARK  229  A    between atoms: _555  and  _556
REMARK  230  A    between atoms: _555  and  _558
REMARK  231  A    between atoms: _558  and  _559
REMARK  232  A    between atoms: _559  and  _560
REMARK  233  A    between atoms: _560  and  _561
REMARK                            x       y       z     vdW  Elec       q    Type
REMARK                         _______ _______ _______ _____ _____    ______ ____
ROOT
ATOM      1  O   HOH     1      22.331  15.845   4.853  0.00  0.00    +0.000 OA
ENDROOT
TORSDOF 0
REMARK  Name = ../refined-set-2016/1ec1/1ec1_pocket.pdb
REMARK  233 active torsions:
REMARK  status: ('A' for Active; 'I' for Inactive)
REMARK    1  A    between atoms: _1  and  _3
REMARK    2  A    between atoms: _3  and  _4
REMARK    3  A    between atoms: _3  and  _6
REMARK    4  A    between atoms: _6  and  _7
REMARK    5  A    between atoms: _7  and  _8
REMARK    6  A    between atoms: _8  and  _9
REMARK    7  A    between atoms: _18  and  _20
REMARK    8  A    between atoms: _20  and  _21
REMARK    9  A    between atoms: _20  and  _23
REMARK   10  A    between atoms: _23  and  _24
REMARK   11  A    between atoms: _27  and  _29
REMARK   12  A    between atoms: _29  and  _30
REMARK   13  A    between atoms: _29  and  _32
REMARK   14  A    between atoms: _32  and  _33
REMARK   15  A    between atoms: _36  and  _38
REMARK   16  A    between atoms: _38  and  _39
REMARK   17  A    between atoms: _38  and  _41
REMARK   18  A    between atoms: _41  and  _42
REMARK   19  A    between atoms: _45  and  _47
REMARK   20  A    between atoms: _47  and  _48
REMARK   21  A    between atoms: _47  and  _50
REMARK   22  A    between atoms: _50  and  _51
REMARK   23  A    between atoms: _54  and  _56
REMARK   24  A    between atoms: _56  and  _57
REMARK   25  A    between atoms: _56  and  _59
REMARK   26  A    between atoms: _59  and  _60
REMARK   27  A    between atoms: _63  and  _65
REMARK   28  A    between atoms: _65  and  _66
REMARK   29  A    between atoms: _68  and  _70
REMARK   30  A    between atoms: _70  and  _71
REMARK   31  A    between atoms: _74  and  _76
REMARK   32  A    between atoms: _76  and  _77
REMARK   33  A    between atoms: _76  and  _79
REMARK   34  A    between atoms: _79  and  _80
REMARK   35  A    between atoms: _83  and  _85
REMARK   36  A    between atoms: _85  and  _86
REMARK   37  A    between atoms: _85  and  _88
REMARK   38  A    between atoms: _88  and  _89
REMARK   39  A    between atoms: _92  and  _94
REMARK   40  A    between atoms: _94  and  _95
REMARK   41  A    between atoms: _94  and  _97
REMARK   42  A    between atoms: _97  and  _98
REMARK   43  A    between atoms: _101  and  _103
REMARK   44  A    between atoms: _103  and  _104
REMARK   45  A    between atoms: _103  and  _106
REMARK   46  A    between atoms: _109  and  _111
REMARK   47  A    between atoms: _111  and  _112
REMARK   48  A    between atoms: _111  and  _114
REMARK   49  A    between atoms: _114  and  _115
REMARK   50  A    between atoms: _115  and  _116
REMARK   51  A    between atoms: _116  and  _117
REMARK   52  A    between atoms: _117  and  _118
REMARK   53  A    between atoms: _122  and  _124
REMARK   54  A    between atoms: _124  and  _125
REMARK   55  A    between atoms: _124  and  _127
REMARK   56  A    between atoms: _127  and  _128
REMARK   57  A    between atoms: _128  and  _129
REMARK   58  A    between atoms: _131  and  _133
REMARK   59  A    between atoms: _133  and  _134
REMARK   60  A    between atoms: _133  and  _136
REMARK   61  A    between atoms: _136  and  _137
REMARK   62  A    between atoms: _140  and  _142
REMARK   63  A    between atoms: _142  and  _143
REMARK   64  A    between atoms: _145  and  _147
REMARK   65  A    between atoms: _147  and  _148
REMARK   66  A    between atoms: _150  and  _152
REMARK   67  A    between atoms: _152  and  _153
REMARK   68  A    between atoms: _152  and  _155
REMARK   69  A    between atoms: _155  and  _156
REMARK   70  A    between atoms: _159  and  _161
REMARK   71  A    between atoms: _161  and  _162
REMARK   72  A    between atoms: _164  and  _166
REMARK   73  A    between atoms: _166  and  _167
REMARK   74  A    between atoms: _169  and  _171
REMARK   75  A    between atoms: _171  and  _172
REMARK   76  A    between atoms: _171  and  _174
REMARK   77  A    between atoms: _174  and  _175
REMARK   78  A    between atoms: _181  and  _183
REMARK   79  A    between atoms: _183  and  _184
REMARK   80  A    between atoms: _183  and  _186
REMARK   81  A    between atoms: _186  and  _187
REMARK   82  A    between atoms: _190  and  _192
REMARK   83  A    between atoms: _192  and  _193
REMARK   84  A    between atoms: _192  and  _195
REMARK   85  A    between atoms: _198  and  _200
REMARK   86  A    between atoms: _200  and  _201
REMARK   87  A    between atoms: _200  and  _203
REMARK   88  A    between atoms: _203  and  _204
REMARK   89  A    between atoms: _207  and  _209
REMARK   90  A    between atoms: _209  and  _210
REMARK   91  A    between atoms: _209  and  _212
REMARK   92  A    between atoms: _212  and  _213
REMARK   93  A    between atoms: _217  and  _218
REMARK   94  A    between atoms: _223  and  _225
REMARK   95  A    between atoms: _225  and  _226
REMARK   96  A    between atoms: _225  and  _228
REMARK   97  A    between atoms: _231  and  _233
REMARK   98  A    between atoms: _233  and  _234
REMARK   99  A    between atoms: _233  and  _236
REMARK  100  A    between atoms: _236  and  _237
REMARK  101  A    between atoms: _242  and  _244
REMARK  102  A    between atoms: _244  and  _245
REMARK  103  A    between atoms: _244  and  _247
REMARK  104  A    between atoms: _247  and  _248
REMARK  105  A    between atoms: _251  and  _253
REMARK  106  A    between atoms: _253  and  _254
REMARK  107  A    between atoms: _253  and  _256
REMARK  108  A    between atoms: _256  and  _257
REMARK  109  A    between atoms: _260  and  _262
REMARK  110  A    between atoms: _262  and  _263
REMARK  111  A    between atoms: _265  and  _267
REMARK  112  A    between atoms: _267  and  _268
REMARK  113  A    between atoms: _267  and  _270
REMARK  114  A    between atoms: _270  and  _271
REMARK  115  A    between atoms: _271  and  _272
REMARK  116  A    between atoms: _272  and  _273
REMARK  117  A    between atoms: _282  and  _284
REMARK  118  A    between atoms: _284  and  _285
REMARK  119  A    between atoms: _284  and  _287
REMARK  120  A    between atoms: _287  and  _288
REMARK  121  A    between atoms: _288  and  _289
REMARK  122  A    between atoms: _289  and  _290
REMARK  123  A    between atoms: _299  and  _301
REMARK  124  A    between atoms: _301  and  _302
REMARK  125  A    between atoms: _301  and  _304
REMARK  126  A    between atoms: _304  and  _305
REMARK  127  A    between atoms: _308  and  _310
REMARK  128  A    between atoms: _310  and  _311
REMARK  129  A    between atoms: _310  and  _313
REMARK  130  A    between atoms: _313  and  _314
REMARK  131  A    between atoms: _317  and  _319
REMARK  132  A    between atoms: _319  and  _320
REMARK  133  A    between atoms: _319  and  _322
REMARK  134  A    between atoms: _322  and  _323
REMARK  135  A    between atoms: _326  and  _328
REMARK  136  A    between atoms: _328  and  _329
REMARK  137  A    between atoms: _328  and  _331
REMARK  138  A    between atoms: _331  and  _332
REMARK  139  A    between atoms: _335  and  _337
REMARK  140  A    between atoms: _337  and  _338
REMARK  141  A    between atoms: _337  and  _340
REMARK  142  A    between atoms: _340  and  _341
REMARK  143  A    between atoms: _344  and  _346
REMARK  144  A    between atoms: _346  and  _347
REMARK  145  A    between atoms: _349  and  _351
REMARK  146  A    between atoms: _351  and  _352
REMARK  147  A    between atoms: _355  and  _357
REMARK  148  A    between atoms: _357  and  _358
REMARK  149  A    between atoms: _357  and  _360
REMARK  150  A    between atoms: _360  and  _361
REMARK  151  A    between atoms: _364  and  _366
REMARK  152  A    between atoms: _366  and  _367
REMARK  153  A    between atoms: _366  and  _369
REMARK  154  A    between atoms: _369  and  _370
REMARK  155  A    between atoms: _373  and  _375
REMARK  156  A    between atoms: _375  and  _376
REMARK  157  A    between atoms: _375  and  _378
REMARK  158  A    between atoms: _378  and  _379
REMARK  159  A    between atoms: _382  and  _384
REMARK  160  A    between atoms: _384  and  _385
REMARK  161  A    between atoms: _384  and  _387
REMARK  162  A    between atoms: _390  and  _392
REMARK  163  A    between atoms: _392  and  _393
REMARK  164  A    between atoms: _392  and  _395
REMARK  165  A    between atoms: _395  and  _396
REMARK  166  A    between atoms: _396  and  _397
REMARK  167  A    between atoms: _397  and  _398
REMARK  168  A    between atoms: _398  and  _399
REMARK  169  A    between atoms: _403  and  _405
REMARK  170  A    between atoms: _405  and  _406
REMARK  171  A    between atoms: _405  and  _408
REMARK  172  A    between atoms: _408  and  _409
REMARK  173  A    between atoms: _409  and  _410
REMARK  174  A    between atoms: _412  and  _414
REMARK  175  A    between atoms: _414  and  _415
REMARK  176  A    between atoms: _414  and  _417
REMARK  177  A    between atoms: _417  and  _418
REMARK  178  A    between atoms: _421  and  _423
REMARK  179  A    between atoms: _423  and  _424
REMARK  180  A    between atoms: _426  and  _428
REMARK  181  A    between atoms: _428  and  _429
REMARK  182  A    between atoms: _431  and  _433
REMARK  183  A    between atoms: _433  and  _434
REMARK  184  A    between atoms: _433  and  _436
REMARK  185  A    between atoms: _436  and  _437
REMARK  186  A    between atoms: _440  and  _442
REMARK  187  A    between atoms: _442  and  _443
REMARK  188  A    between atoms: _445  and  _447
REMARK  189  A    between atoms: _447  and  _448
REMARK  190  A    between atoms: _450  and  _452
REMARK  191  A    between atoms: _452  and  _453
REMARK  192  A    between atoms: _452  and  _455
REMARK  193  A    between atoms: _455  and  _456
REMARK  194  A    between atoms: _462  and  _464
REMARK  195  A    between atoms: _464  and  _465
REMARK  196  A    between atoms: _464  and  _467
REMARK  197  A    between atoms: _467  and  _468
REMARK  198  A    between atoms: _471  and  _473
REMARK  199  A    between atoms: _473  and  _474
REMARK  200  A    between atoms: _473  and  _476
REMARK  201  A    between atoms: _479  and  _481
REMARK  202  A    between atoms: _481  and  _482
REMARK  203  A    between atoms: _481  and  _484
REMARK  204  A    between atoms: _484  and  _485
REMARK  205  A    between atoms: _489  and  _490
REMARK  206  A    between atoms: _495  and  _497
REMARK  207  A    between atoms: _497  and  _498
REMARK  208  A    between atoms: _497  and  _500
REMARK  209  A    between atoms: _500  and  _501
REMARK  210  A    between atoms: _505  and  _506
REMARK  211  A    between atoms: _511  and  _513
REMARK  212  A    between atoms: _513  and  _514
REMARK  213  A    between atoms: _513  and  _516
REMARK  214  A    between atoms: _519  and  _521
REMARK  215  A    between atoms: _521  and  _522
REMARK  216  A    between atoms: _521  and  _524
REMARK  217  A    between atoms: _524  and  _525
REMARK  218  A    between atoms: _530  and  _532
REMARK  219  A    between atoms: _532  and  _533
REMARK  220  A    between atoms: _532  and  _535
REMARK  221  A    between atoms: _535  and  _536
REMARK  222  A    between atoms: _539  and  _541
REMARK  223  A    between atoms: _541  and  _542
REMARK  224  A    between atoms: _541  and  _544
REMARK  225  A    between atoms: _544  and  _545
REMARK  226  A    between atoms: _548  and  _550
REMARK  227  A    between atoms: _550  and  _551
REMARK  228  A    between atoms: _553  and  _555
REMARK  229  A    between atoms: _555  and  _556
REMARK  230  A    between atoms: _555  and  _558
REMARK  231  A    between atoms: _558  and  _559
REMARK  232  A    between atoms: _559  and  _560
REMARK  233  A    between atoms: _560  and  _561
REMARK                            x       y       z     vdW  Elec       q    Type
REMARK                         _______ _______ _______ _____ _____    ______ ____
ROOT
ATOM      1  O   HOH     1       6.030  28.478  -3.052  0.00  0.00    +0.000 OA
ENDROOT
TORSDOF 0
REMARK  Name = ../refined-set-2016/1ec1/1ec1_pocket.pdb
REMARK  233 active torsions:
REMARK  status: ('A' for Active; 'I' for Inactive)
REMARK    1  A    between atoms: _1  and  _3
REMARK    2  A    between atoms: _3  and  _4
REMARK    3  A    between atoms: _3  and  _6
REMARK    4  A    between atoms: _6  and  _7
REMARK    5  A    between atoms: _7  and  _8
REMARK    6  A    between atoms: _8  and  _9
REMARK    7  A    between atoms: _18  and  _20
REMARK    8  A    between atoms: _20  and  _21
REMARK    9  A    between atoms: _20  and  _23
REMARK   10  A    between atoms: _23  and  _24
REMARK   11  A    between atoms: _27  and  _29
REMARK   12  A    between atoms: _29  and  _30
REMARK   13  A    between atoms: _29  and  _32
REMARK   14  A    between atoms: _32  and  _33
REMARK   15  A    between atoms: _36  and  _38
REMARK   16  A    between atoms: _38  and  _39
REMARK   17  A    between atoms: _38  and  _41
REMARK   18  A    between atoms: _41  and  _42
REMARK   19  A    between atoms: _45  and  _47
REMARK   20  A    between atoms: _47  and  _48
REMARK   21  A    between atoms: _47  and  _50
REMARK   22  A    between atoms: _50  and  _51
REMARK   23  A    between atoms: _54  and  _56
REMARK   24  A    between atoms: _56  and  _57
REMARK   25  A    between atoms: _56  and  _59
REMARK   26  A    between atoms: _59  and  _60
REMARK   27  A    between atoms: _63  and  _65
REMARK   28  A    between atoms: _65  and  _66
REMARK   29  A    between atoms: _68  and  _70
REMARK   30  A    between atoms: _70  and  _71
REMARK   31  A    between atoms: _74  and  _76
REMARK   32  A    between atoms: _76  and  _77
REMARK   33  A    between atoms: _76  and  _79
REMARK   34  A    between atoms: _79  and  _80
REMARK   35  A    between atoms: _83  and  _85
REMARK   36  A    between atoms: _85  and  _86
REMARK   37  A    between atoms: _85  and  _88
REMARK   38  A    between atoms: _88  and  _89
REMARK   39  A    between atoms: _92  and  _94
REMARK   40  A    between atoms: _94  and  _95
REMARK   41  A    between atoms: _94  and  _97
REMARK   42  A    between atoms: _97  and  _98
REMARK   43  A    between atoms: _101  and  _103
REMARK   44  A    between atoms: _103  and  _104
REMARK   45  A    between atoms: _103  and  _106
REMARK   46  A    between atoms: _109  and  _111
REMARK   47  A    between atoms: _111  and  _112
REMARK   48  A    between atoms: _111  and  _114
REMARK   49  A    between atoms: _114  and  _115
REMARK   50  A    between atoms: _115  and  _116
REMARK   51  A    between atoms: _116  and  _117
REMARK   52  A    between atoms: _117  and  _118
REMARK   53  A    between atoms: _122  and  _124
REMARK   54  A    between atoms: _124  and  _125
REMARK   55  A    between atoms: _124  and  _127
REMARK   56  A    between atoms: _127  and  _128
REMARK   57  A    between atoms: _128  and  _129
REMARK   58  A    between atoms: _131  and  _133
REMARK   59  A    between atoms: _133  and  _134
REMARK   60  A    between atoms: _133  and  _136
REMARK   61  A    between atoms: _136  and  _137
REMARK   62  A    between atoms: _140  and  _142
REMARK   63  A    between atoms: _142  and  _143
REMARK   64  A    between atoms: _145  and  _147
REMARK   65  A    between atoms: _147  and  _148
REMARK   66  A    between atoms: _150  and  _152
REMARK   67  A    between atoms: _152  and  _153
REMARK   68  A    between atoms: _152  and  _155
REMARK   69  A    between atoms: _155  and  _156
REMARK   70  A    between atoms: _159  and  _161
REMARK   71  A    between atoms: _161  and  _162
REMARK   72  A    between atoms: _164  and  _166
REMARK   73  A    between atoms: _166  and  _167
REMARK   74  A    between atoms: _169  and  _171
REMARK   75  A    between atoms: _171  and  _172
REMARK   76  A    between atoms: _171  and  _174
REMARK   77  A    between atoms: _174  and  _175
REMARK   78  A    between atoms: _181  and  _183
REMARK   79  A    between atoms: _183  and  _184
REMARK   80  A    between atoms: _183  and  _186
REMARK   81  A    between atoms: _186  and  _187
REMARK   82  A    between atoms: _190  and  _192
REMARK   83  A    between atoms: _192  and  _193
REMARK   84  A    between atoms: _192  and  _195
REMARK   85  A    between atoms: _198  and  _200
REMARK   86  A    between atoms: _200  and  _201
REMARK   87  A    between atoms: _200  and  _203
REMARK   88  A    between atoms: _203  and  _204
REMARK   89  A    between atoms: _207  and  _209
REMARK   90  A    between atoms: _209  and  _210
REMARK   91  A    between atoms: _209  and  _212
REMARK   92  A    between atoms: _212  and  _213
REMARK   93  A    between atoms: _217  and  _218
REMARK   94  A    between atoms: _223  and  _225
REMARK   95  A    between atoms: _225  and  _226
REMARK   96  A    between atoms: _225  and  _228
REMARK   97  A    between atoms: _231  and  _233
REMARK   98  A    between atoms: _233  and  _234
REMARK   99  A    between atoms: _233  and  _236
REMARK  100  A    between atoms: _236  and  _237
REMARK  101  A    between atoms: _242  and  _244
REMARK  102  A    between atoms: _244  and  _245
REMARK  103  A    between atoms: _244  and  _247
REMARK  104  A    between atoms: _247  and  _248
REMARK  105  A    between atoms: _251  and  _253
REMARK  106  A    between atoms: _253  and  _254
REMARK  107  A    between atoms: _253  and  _256
REMARK  108  A    between atoms: _256  and  _257
REMARK  109  A    between atoms: _260  and  _262
REMARK  110  A    between atoms: _262  and  _263
REMARK  111  A    between atoms: _265  and  _267
REMARK  112  A    between atoms: _267  and  _268
REMARK  113  A    between atoms: _267  and  _270
REMARK  114  A    between atoms: _270  and  _271
REMARK  115  A    between atoms: _271  and  _272
REMARK  116  A    between atoms: _272  and  _273
REMARK  117  A    between atoms: _282  and  _284
REMARK  118  A    between atoms: _284  and  _285
REMARK  119  A    between atoms: _284  and  _287
REMARK  120  A    between atoms: _287  and  _288
REMARK  121  A    between atoms: _288  and  _289
REMARK  122  A    between atoms: _289  and  _290
REMARK  123  A    between atoms: _299  and  _301
REMARK  124  A    between atoms: _301  and  _302
REMARK  125  A    between atoms: _301  and  _304
REMARK  126  A    between atoms: _304  and  _305
REMARK  127  A    between atoms: _308  and  _310
REMARK  128  A    between atoms: _310  and  _311
REMARK  129  A    between atoms: _310  and  _313
REMARK  130  A    between atoms: _313  and  _314
REMARK  131  A    between atoms: _317  and  _319
REMARK  132  A    between atoms: _319  and  _320
REMARK  133  A    between atoms: _319  and  _322
REMARK  134  A    between atoms: _322  and  _323
REMARK  135  A    between atoms: _326  and  _328
REMARK  136  A    between atoms: _328  and  _329
REMARK  137  A    between atoms: _328  and  _331
REMARK  138  A    between atoms: _331  and  _332
REMARK  139  A    between atoms: _335  and  _337
REMARK  140  A    between atoms: _337  and  _338
REMARK  141  A    between atoms: _337  and  _340
REMARK  142  A    between atoms: _340  and  _341
REMARK  143  A    between atoms: _344  and  _346
REMARK  144  A    between atoms: _346  and  _347
REMARK  145  A    between atoms: _349  and  _351
REMARK  146  A    between atoms: _351  and  _352
REMARK  147  A    between atoms: _355  and  _357
REMARK  148  A    between atoms: _357  and  _358
REMARK  149  A    between atoms: _357  and  _360
REMARK  150  A    between atoms: _360  and  _361
REMARK  151  A    between atoms: _364  and  _366
REMARK  152  A    between atoms: _366  and  _367
REMARK  153  A    between atoms: _366  and  _369
REMARK  154  A    between atoms: _369  and  _370
REMARK  155  A    between atoms: _373  and  _375
REMARK  156  A    between atoms: _375  and  _376
REMARK  157  A    between atoms: _375  and  _378
REMARK  158  A    between atoms: _378  and  _379
REMARK  159  A    between atoms: _382  and  _384
REMARK  160  A    between atoms: _384  and  _385
REMARK  161  A    between atoms: _384  and  _387
REMARK  162  A    between atoms: _390  and  _392
REMARK  163  A    between atoms: _392  and  _393
REMARK  164  A    between atoms: _392  and  _395
REMARK  165  A    between atoms: _395  and  _396
REMARK  166  A    between atoms: _396  and  _397
REMARK  167  A    between atoms: _397  and  _398
REMARK  168  A    between atoms: _398  and  _399
REMARK  169  A    between atoms: _403  and  _405
REMARK  170  A    between atoms: _405  and  _406
REMARK  171  A    between atoms: _405  and  _408
REMARK  172  A    between atoms: _408  and  _409
REMARK  173  A    between atoms: _409  and  _410
REMARK  174  A    between atoms: _412  and  _414
REMARK  175  A    between atoms: _414  and  _415
REMARK  176  A    between atoms: _414  and  _417
REMARK  177  A    between atoms: _417  and  _418
REMARK  178  A    between atoms: _421  and  _423
REMARK  179  A    between atoms: _423  and  _424
REMARK  180  A    between atoms: _426  and  _428
REMARK  181  A    between atoms: _428  and  _429
REMARK  182  A    between atoms: _431  and  _433
REMARK  183  A    between atoms: _433  and  _434
REMARK  184  A    between atoms: _433  and  _436
REMARK  185  A    between atoms: _436  and  _437
REMARK  186  A    between atoms: _440  and  _442
REMARK  187  A    between atoms: _442  and  _443
REMARK  188  A    between atoms: _445  and  _447
REMARK  189  A    between atoms: _447  and  _448
REMARK  190  A    between atoms: _450  and  _452
REMARK  191  A    between atoms: _452  and  _453
REMARK  192  A    between atoms: _452  and  _455
REMARK  193  A    between atoms: _455  and  _456
REMARK  194  A    between atoms: _462  and  _464
REMARK  195  A    between atoms: _464  and  _465
REMARK  196  A    between atoms: _464  and  _467
REMARK  197  A    between atoms: _467  and  _468
REMARK  198  A    between atoms: _471  and  _473
REMARK  199  A    between atoms: _473  and  _474
REMARK  200  A    between atoms: _473  and  _476
REMARK  201  A    between atoms: _479  and  _481
REMARK  202  A    between atoms: _481  and  _482
REMARK  203  A    between atoms: _481  and  _484
REMARK  204  A    between atoms: _484  and  _485
REMARK  205  A    between atoms: _489  and  _490
REMARK  206  A    between atoms: _495  and  _497
REMARK  207  A    between atoms: _497  and  _498
REMARK  208  A    between atoms: _497  and  _500
REMARK  209  A    between atoms: _500  and  _501
REMARK  210  A    between atoms: _505  and  _506
REMARK  211  A    between atoms: _511  and  _513
REMARK  212  A    between atoms: _513  and  _514
REMARK  213  A    between atoms: _513  and  _516
REMARK  214  A    between atoms: _519  and  _521
REMARK  215  A    between atoms: _521  and  _522
REMARK  216  A    between atoms: _521  and  _524
REMARK  217  A    between atoms: _524  and  _525
REMARK  218  A    between atoms: _530  and  _532
REMARK  219  A    between atoms: _532  and  _533
REMARK  220  A    between atoms: _532  and  _535
REMARK  221  A    between atoms: _535  and  _536
REMARK  222  A    between atoms: _539  and  _541
REMARK  223  A    between atoms: _541  and  _542
REMARK  224  A    between atoms: _541  and  _544
REMARK  225  A    between atoms: _544  and  _545
REMARK  226  A    between atoms: _548  and  _550
REMARK  227  A    between atoms: _550  and  _551
REMARK  228  A    between atoms: _553  and  _555
REMARK  229  A    between atoms: _555  and  _556
REMARK  230  A    between atoms: _555  and  _558
REMARK  231  A    between atoms: _558  and  _559
REMARK  232  A    between atoms: _559  and  _560
REMARK  233  A    between atoms: _560  and  _561
REMARK                            x       y       z     vdW  Elec       q    Type
REMARK                         _______ _______ _______ _____ _____    ______ ____
ROOT
ATOM      1  O   HOH     1      25.123  19.459   0.586  0.00  0.00    +0.000 OA
ENDROOT
TORSDOF 0
REMARK  Name = ../refined-set-2016/1ec1/1ec1_pocket.pdb
REMARK  233 active torsions:
REMARK  status: ('A' for Active; 'I' for Inactive)
REMARK    1  A    between atoms: _1  and  _3
REMARK    2  A    between atoms: _3  and  _4
REMARK    3  A    between atoms: _3  and  _6
REMARK    4  A    between atoms: _6  and  _7
REMARK    5  A    between atoms: _7  and  _8
REMARK    6  A    between atoms: _8  and  _9
REMARK    7  A    between atoms: _18  and  _20
REMARK    8  A    between atoms: _20  and  _21
REMARK    9  A    between atoms: _20  and  _23
REMARK   10  A    between atoms: _23  and  _24
REMARK   11  A    between atoms: _27  and  _29
REMARK   12  A    between atoms: _29  and  _30
REMARK   13  A    between atoms: _29  and  _32
REMARK   14  A    between atoms: _32  and  _33
REMARK   15  A    between atoms: _36  and  _38
REMARK   16  A    between atoms: _38  and  _39
REMARK   17  A    between atoms: _38  and  _41
REMARK   18  A    between atoms: _41  and  _42
REMARK   19  A    between atoms: _45  and  _47
REMARK   20  A    between atoms: _47  and  _48
REMARK   21  A    between atoms: _47  and  _50
REMARK   22  A    between atoms: _50  and  _51
REMARK   23  A    between atoms: _54  and  _56
REMARK   24  A    between atoms: _56  and  _57
REMARK   25  A    between atoms: _56  and  _59
REMARK   26  A    between atoms: _59  and  _60
REMARK   27  A    between atoms: _63  and  _65
REMARK   28  A    between atoms: _65  and  _66
REMARK   29  A    between atoms: _68  and  _70
REMARK   30  A    between atoms: _70  and  _71
REMARK   31  A    between atoms: _74  and  _76
REMARK   32  A    between atoms: _76  and  _77
REMARK   33  A    between atoms: _76  and  _79
REMARK   34  A    between atoms: _79  and  _80
REMARK   35  A    between atoms: _83  and  _85
REMARK   36  A    between atoms: _85  and  _86
REMARK   37  A    between atoms: _85  and  _88
REMARK   38  A    between atoms: _88  and  _89
REMARK   39  A    between atoms: _92  and  _94
REMARK   40  A    between atoms: _94  and  _95
REMARK   41  A    between atoms: _94  and  _97
REMARK   42  A    between atoms: _97  and  _98
REMARK   43  A    between atoms: _101  and  _103
REMARK   44  A    between atoms: _103  and  _104
REMARK   45  A    between atoms: _103  and  _106
REMARK   46  A    between atoms: _109  and  _111
REMARK   47  A    between atoms: _111  and  _112
REMARK   48  A    between atoms: _111  and  _114
REMARK   49  A    between atoms: _114  and  _115
REMARK   50  A    between atoms: _115  and  _116
REMARK   51  A    between atoms: _116  and  _117
REMARK   52  A    between atoms: _117  and  _118
REMARK   53  A    between atoms: _122  and  _124
REMARK   54  A    between atoms: _124  and  _125
REMARK   55  A    between atoms: _124  and  _127
REMARK   56  A    between atoms: _127  and  _128
REMARK   57  A    between atoms: _128  and  _129
REMARK   58  A    between atoms: _131  and  _133
REMARK   59  A    between atoms: _133  and  _134
REMARK   60  A    between atoms: _133  and  _136
REMARK   61  A    between atoms: _136  and  _137
REMARK   62  A    between atoms: _140  and  _142
REMARK   63  A    between atoms: _142  and  _143
REMARK   64  A    between atoms: _145  and  _147
REMARK   65  A    between atoms: _147  and  _148
REMARK   66  A    between atoms: _150  and  _152
REMARK   67  A    between atoms: _152  and  _153
REMARK   68  A    between atoms: _152  and  _155
REMARK   69  A    between atoms: _155  and  _156
REMARK   70  A    between atoms: _159  and  _161
REMARK   71  A    between atoms: _161  and  _162
REMARK   72  A    between atoms: _164  and  _166
REMARK   73  A    between atoms: _166  and  _167
REMARK   74  A    between atoms: _169  and  _171
REMARK   75  A    between atoms: _171  and  _172
REMARK   76  A    between atoms: _171  and  _174
REMARK   77  A    between atoms: _174  and  _175
REMARK   78  A    between atoms: _181  and  _183
REMARK   79  A    between atoms: _183  and  _184
REMARK   80  A    between atoms: _183  and  _186
REMARK   81  A    between atoms: _186  and  _187
REMARK   82  A    between atoms: _190  and  _192
REMARK   83  A    between atoms: _192  and  _193
REMARK   84  A    between atoms: _192  and  _195
REMARK   85  A    between atoms: _198  and  _200
REMARK   86  A    between atoms: _200  and  _201
REMARK   87  A    between atoms: _200  and  _203
REMARK   88  A    between atoms: _203  and  _204
REMARK   89  A    between atoms: _207  and  _209
REMARK   90  A    between atoms: _209  and  _210
REMARK   91  A    between atoms: _209  and  _212
REMARK   92  A    between atoms: _212  and  _213
REMARK   93  A    between atoms: _217  and  _218
REMARK   94  A    between atoms: _223  and  _225
REMARK   95  A    between atoms: _225  and  _226
REMARK   96  A    between atoms: _225  and  _228
REMARK   97  A    between atoms: _231  and  _233
REMARK   98  A    between atoms: _233  and  _234
REMARK   99  A    between atoms: _233  and  _236
REMARK  100  A    between atoms: _236  and  _237
REMARK  101  A    between atoms: _242  and  _244
REMARK  102  A    between atoms: _244  and  _245
REMARK  103  A    between atoms: _244  and  _247
REMARK  104  A    between atoms: _247  and  _248
REMARK  105  A    between atoms: _251  and  _253
REMARK  106  A    between atoms: _253  and  _254
REMARK  107  A    between atoms: _253  and  _256
REMARK  108  A    between atoms: _256  and  _257
REMARK  109  A    between atoms: _260  and  _262
REMARK  110  A    between atoms: _262  and  _263
REMARK  111  A    between atoms: _265  and  _267
REMARK  112  A    between atoms: _267  and  _268
REMARK  113  A    between atoms: _267  and  _270
REMARK  114  A    between atoms: _270  and  _271
REMARK  115  A    between atoms: _271  and  _272
REMARK  116  A    between atoms: _272  and  _273
REMARK  117  A    between atoms: _282  and  _284
REMARK  118  A    between atoms: _284  and  _285
REMARK  119  A    between atoms: _284  and  _287
REMARK  120  A    between atoms: _287  and  _288
REMARK  121  A    between atoms: _288  and  _289
REMARK  122  A    between atoms: _289  and  _290
REMARK  123  A    between atoms: _299  and  _301
REMARK  124  A    between atoms: _301  and  _302
REMARK  125  A    between atoms: _301  and  _304
REMARK  126  A    between atoms: _304  and  _305
REMARK  127  A    between atoms: _308  and  _310
REMARK  128  A    between atoms: _310  and  _311
REMARK  129  A    between atoms: _310  and  _313
REMARK  130  A    between atoms: _313  and  _314
REMARK  131  A    between atoms: _317  and  _319
REMARK  132  A    between atoms: _319  and  _320
REMARK  133  A    between atoms: _319  and  _322
REMARK  134  A    between atoms: _322  and  _323
REMARK  135  A    between atoms: _326  and  _328
REMARK  136  A    between atoms: _328  and  _329
REMARK  137  A    between atoms: _328  and  _331
REMARK  138  A    between atoms: _331  and  _332
REMARK  139  A    between atoms: _335  and  _337
REMARK  140  A    between atoms: _337  and  _338
REMARK  141  A    between atoms: _337  and  _340
REMARK  142  A    between atoms: _340  and  _341
REMARK  143  A    between atoms: _344  and  _346
REMARK  144  A    between atoms: _346  and  _347
REMARK  145  A    between atoms: _349  and  _351
REMARK  146  A    between atoms: _351  and  _352
REMARK  147  A    between atoms: _355  and  _357
REMARK  148  A    between atoms: _357  and  _358
REMARK  149  A    between atoms: _357  and  _360
REMARK  150  A    between atoms: _360  and  _361
REMARK  151  A    between atoms: _364  and  _366
REMARK  152  A    between atoms: _366  and  _367
REMARK  153  A    between atoms: _366  and  _369
REMARK  154  A    between atoms: _369  and  _370
REMARK  155  A    between atoms: _373  and  _375
REMARK  156  A    between atoms: _375  and  _376
REMARK  157  A    between atoms: _375  and  _378
REMARK  158  A    between atoms: _378  and  _379
REMARK  159  A    between atoms: _382  and  _384
REMARK  160  A    between atoms: _384  and  _385
REMARK  161  A    between atoms: _384  and  _387
REMARK  162  A    between atoms: _390  and  _392
REMARK  163  A    between atoms: _392  and  _393
REMARK  164  A    between atoms: _392  and  _395
REMARK  165  A    between atoms: _395  and  _396
REMARK  166  A    between atoms: _396  and  _397
REMARK  167  A    between atoms: _397  and  _398
REMARK  168  A    between atoms: _398  and  _399
REMARK  169  A    between atoms: _403  and  _405
REMARK  170  A    between atoms: _405  and  _406
REMARK  171  A    between atoms: _405  and  _408
REMARK  172  A    between atoms: _408  and  _409
REMARK  173  A    between atoms: _409  and  _410
REMARK  174  A    between atoms: _412  and  _414
REMARK  175  A    between atoms: _414  and  _415
REMARK  176  A    between atoms: _414  and  _417
REMARK  177  A    between atoms: _417  and  _418
REMARK  178  A    between atoms: _421  and  _423
REMARK  179  A    between atoms: _423  and  _424
REMARK  180  A    between atoms: _426  and  _428
REMARK  181  A    between atoms: _428  and  _429
REMARK  182  A    between atoms: _431  and  _433
REMARK  183  A    between atoms: _433  and  _434
REMARK  184  A    between atoms: _433  and  _436
REMARK  185  A    between atoms: _436  and  _437
REMARK  186  A    between atoms: _440  and  _442
REMARK  187  A    between atoms: _442  and  _443
REMARK  188  A    between atoms: _445  and  _447
REMARK  189  A    between atoms: _447  and  _448
REMARK  190  A    between atoms: _450  and  _452
REMARK  191  A    between atoms: _452  and  _453
REMARK  192  A    between atoms: _452  and  _455
REMARK  193  A    between atoms: _455  and  _456
REMARK  194  A    between atoms: _462  and  _464
REMARK  195  A    between atoms: _464  and  _465
REMARK  196  A    between atoms: _464  and  _467
REMARK  197  A    between atoms: _467  and  _468
REMARK  198  A    between atoms: _471  and  _473
REMARK  199  A    between atoms: _473  and  _474
REMARK  200  A    between atoms: _473  and  _476
REMARK  201  A    between atoms: _479  and  _481
REMARK  202  A    between atoms: _481  and  _482
REMARK  203  A    between atoms: _481  and  _484
REMARK  204  A    between atoms: _484  and  _485
REMARK  205  A    between atoms: _489  and  _490
REMARK  206  A    between atoms: _495  and  _497
REMARK  207  A    between atoms: _497  and  _498
REMARK  208  A    between atoms: _497  and  _500
REMARK  209  A    between atoms: _500  and  _501
REMARK  210  A    between atoms: _505  and  _506
REMARK  211  A    between atoms: _511  and  _513
REMARK  212  A    between atoms: _513  and  _514
REMARK  213  A    between atoms: _513  and  _516
REMARK  214  A    between atoms: _519  and  _521
REMARK  215  A    between atoms: _521  and  _522
REMARK  216  A    between atoms: _521  and  _524
REMARK  217  A    between atoms: _524  and  _525
REMARK  218  A    between atoms: _530  and  _532
REMARK  219  A    between atoms: _532  and  _533
REMARK  220  A    between atoms: _532  and  _535
REMARK  221  A    between atoms: _535  and  _536
REMARK  222  A    between atoms: _539  and  _541
REMARK  223  A    between atoms: _541  and  _542
REMARK  224  A    between atoms: _541  and  _544
REMARK  225  A    between atoms: _544  and  _545
REMARK  226  A    between atoms: _548  and  _550
REMARK  227  A    between atoms: _550  and  _551
REMARK  228  A    between atoms: _553  and  _555
REMARK  229  A    between atoms: _555  and  _556
REMARK  230  A    between atoms: _555  and  _558
REMARK  231  A    between atoms: _558  and  _559
REMARK  232  A    between atoms: _559  and  _560
REMARK  233  A    between atoms: _560  and  _561
REMARK                            x       y       z     vdW  Elec       q    Type
REMARK                         _______ _______ _______ _____ _____    ______ ____
ROOT
ATOM      1  O   HOH     1       6.449  26.699  -5.379  0.00  0.00    +0.000 OA
ENDROOT
TORSDOF 0
REMARK  Name = ../refined-set-2016/1ec1/1ec1_pocket.pdb
REMARK  233 active torsions:
REMARK  status: ('A' for Active; 'I' for Inactive)
REMARK    1  A    between atoms: _1  and  _3
REMARK    2  A    between atoms: _3  and  _4
REMARK    3  A    between atoms: _3  and  _6
REMARK    4  A    between atoms: _6  and  _7
REMARK    5  A    between atoms: _7  and  _8
REMARK    6  A    between atoms: _8  and  _9
REMARK    7  A    between atoms: _18  and  _20
REMARK    8  A    between atoms: _20  and  _21
REMARK    9  A    between atoms: _20  and  _23
REMARK   10  A    between atoms: _23  and  _24
REMARK   11  A    between atoms: _27  and  _29
REMARK   12  A    between atoms: _29  and  _30
REMARK   13  A    between atoms: _29  and  _32
REMARK   14  A    between atoms: _32  and  _33
REMARK   15  A    between atoms: _36  and  _38
REMARK   16  A    between atoms: _38  and  _39
REMARK   17  A    between atoms: _38  and  _41
REMARK   18  A    between atoms: _41  and  _42
REMARK   19  A    between atoms: _45  and  _47
REMARK   20  A    between atoms: _47  and  _48
REMARK   21  A    between atoms: _47  and  _50
REMARK   22  A    between atoms: _50  and  _51
REMARK   23  A    between atoms: _54  and  _56
REMARK   24  A    between atoms: _56  and  _57
REMARK   25  A    between atoms: _56  and  _59
REMARK   26  A    between atoms: _59  and  _60
REMARK   27  A    between atoms: _63  and  _65
REMARK   28  A    between atoms: _65  and  _66
REMARK   29  A    between atoms: _68  and  _70
REMARK   30  A    between atoms: _70  and  _71
REMARK   31  A    between atoms: _74  and  _76
REMARK   32  A    between atoms: _76  and  _77
REMARK   33  A    between atoms: _76  and  _79
REMARK   34  A    between atoms: _79  and  _80
REMARK   35  A    between atoms: _83  and  _85
REMARK   36  A    between atoms: _85  and  _86
REMARK   37  A    between atoms: _85  and  _88
REMARK   38  A    between atoms: _88  and  _89
REMARK   39  A    between atoms: _92  and  _94
REMARK   40  A    between atoms: _94  and  _95
REMARK   41  A    between atoms: _94  and  _97
REMARK   42  A    between atoms: _97  and  _98
REMARK   43  A    between atoms: _101  and  _103
REMARK   44  A    between atoms: _103  and  _104
REMARK   45  A    between atoms: _103  and  _106
REMARK   46  A    between atoms: _109  and  _111
REMARK   47  A    between atoms: _111  and  _112
REMARK   48  A    between atoms: _111  and  _114
REMARK   49  A    between atoms: _114  and  _115
REMARK   50  A    between atoms: _115  and  _116
REMARK   51  A    between atoms: _116  and  _117
REMARK   52  A    between atoms: _117  and  _118
REMARK   53  A    between atoms: _122  and  _124
REMARK   54  A    between atoms: _124  and  _125
REMARK   55  A    between atoms: _124  and  _127
REMARK   56  A    between atoms: _127  and  _128
REMARK   57  A    between atoms: _128  and  _129
REMARK   58  A    between atoms: _131  and  _133
REMARK   59  A    between atoms: _133  and  _134
REMARK   60  A    between atoms: _133  and  _136
REMARK   61  A    between atoms: _136  and  _137
REMARK   62  A    between atoms: _140  and  _142
REMARK   63  A    between atoms: _142  and  _143
REMARK   64  A    between atoms: _145  and  _147
REMARK   65  A    between atoms: _147  and  _148
REMARK   66  A    between atoms: _150  and  _152
REMARK   67  A    between atoms: _152  and  _153
REMARK   68  A    between atoms: _152  and  _155
REMARK   69  A    between atoms: _155  and  _156
REMARK   70  A    between atoms: _159  and  _161
REMARK   71  A    between atoms: _161  and  _162
REMARK   72  A    between atoms: _164  and  _166
REMARK   73  A    between atoms: _166  and  _167
REMARK   74  A    between atoms: _169  and  _171
REMARK   75  A    between atoms: _171  and  _172
REMARK   76  A    between atoms: _171  and  _174
REMARK   77  A    between atoms: _174  and  _175
REMARK   78  A    between atoms: _181  and  _183
REMARK   79  A    between atoms: _183  and  _184
REMARK   80  A    between atoms: _183  and  _186
REMARK   81  A    between atoms: _186  and  _187
REMARK   82  A    between atoms: _190  and  _192
REMARK   83  A    between atoms: _192  and  _193
REMARK   84  A    between atoms: _192  and  _195
REMARK   85  A    between atoms: _198  and  _200
REMARK   86  A    between atoms: _200  and  _201
REMARK   87  A    between atoms: _200  and  _203
REMARK   88  A    between atoms: _203  and  _204
REMARK   89  A    between atoms: _207  and  _209
REMARK   90  A    between atoms: _209  and  _210
REMARK   91  A    between atoms: _209  and  _212
REMARK   92  A    between atoms: _212  and  _213
REMARK   93  A    between atoms: _217  and  _218
REMARK   94  A    between atoms: _223  and  _225
REMARK   95  A    between atoms: _225  and  _226
REMARK   96  A    between atoms: _225  and  _228
REMARK   97  A    between atoms: _231  and  _233
REMARK   98  A    between atoms: _233  and  _234
REMARK   99  A    between atoms: _233  and  _236
REMARK  100  A    between atoms: _236  and  _237
REMARK  101  A    between atoms: _242  and  _244
REMARK  102  A    between atoms: _244  and  _245
REMARK  103  A    between atoms: _244  and  _247
REMARK  104  A    between atoms: _247  and  _248
REMARK  105  A    between atoms: _251  and  _253
REMARK  106  A    between atoms: _253  and  _254
REMARK  107  A    between atoms: _253  and  _256
REMARK  108  A    between atoms: _256  and  _257
REMARK  109  A    between atoms: _260  and  _262
REMARK  110  A    between atoms: _262  and  _263
REMARK  111  A    between atoms: _265  and  _267
REMARK  112  A    between atoms: _267  and  _268
REMARK  113  A    between atoms: _267  and  _270
REMARK  114  A    between atoms: _270  and  _271
REMARK  115  A    between atoms: _271  and  _272
REMARK  116  A    between atoms: _272  and  _273
REMARK  117  A    between atoms: _282  and  _284
REMARK  118  A    between atoms: _284  and  _285
REMARK  119  A    between atoms: _284  and  _287
REMARK  120  A    between atoms: _287  and  _288
REMARK  121  A    between atoms: _288  and  _289
REMARK  122  A    between atoms: _289  and  _290
REMARK  123  A    between atoms: _299  and  _301
REMARK  124  A    between atoms: _301  and  _302
REMARK  125  A    between atoms: _301  and  _304
REMARK  126  A    between atoms: _304  and  _305
REMARK  127  A    between atoms: _308  and  _310
REMARK  128  A    between atoms: _310  and  _311
REMARK  129  A    between atoms: _310  and  _313
REMARK  130  A    between atoms: _313  and  _314
REMARK  131  A    between atoms: _317  and  _319
REMARK  132  A    between atoms: _319  and  _320
REMARK  133  A    between atoms: _319  and  _322
REMARK  134  A    between atoms: _322  and  _323
REMARK  135  A    between atoms: _326  and  _328
REMARK  136  A    between atoms: _328  and  _329
REMARK  137  A    between atoms: _328  and  _331
REMARK  138  A    between atoms: _331  and  _332
REMARK  139  A    between atoms: _335  and  _337
REMARK  140  A    between atoms: _337  and  _338
REMARK  141  A    between atoms: _337  and  _340
REMARK  142  A    between atoms: _340  and  _341
REMARK  143  A    between atoms: _344  and  _346
REMARK  144  A    between atoms: _346  and  _347
REMARK  145  A    between atoms: _349  and  _351
REMARK  146  A    between atoms: _351  and  _352
REMARK  147  A    between atoms: _355  and  _357
REMARK  148  A    between atoms: _357  and  _358
REMARK  149  A    between atoms: _357  and  _360
REMARK  150  A    between atoms: _360  and  _361
REMARK  151  A    between atoms: _364  and  _366
REMARK  152  A    between atoms: _366  and  _367
REMARK  153  A    between atoms: _366  and  _369
REMARK  154  A    between atoms: _369  and  _370
REMARK  155  A    between atoms: _373  and  _375
REMARK  156  A    between atoms: _375  and  _376
REMARK  157  A    between atoms: _375  and  _378
REMARK  158  A    between atoms: _378  and  _379
REMARK  159  A    between atoms: _382  and  _384
REMARK  160  A    between atoms: _384  and  _385
REMARK  161  A    between atoms: _384  and  _387
REMARK  162  A    between atoms: _390  and  _392
REMARK  163  A    between atoms: _392  and  _393
REMARK  164  A    between atoms: _392  and  _395
REMARK  165  A    between atoms: _395  and  _396
REMARK  166  A    between atoms: _396  and  _397
REMARK  167  A    between atoms: _397  and  _398
REMARK  168  A    between atoms: _398  and  _399
REMARK  169  A    between atoms: _403  and  _405
REMARK  170  A    between atoms: _405  and  _406
REMARK  171  A    between atoms: _405  and  _408
REMARK  172  A    between atoms: _408  and  _409
REMARK  173  A    between atoms: _409  and  _410
REMARK  174  A    between atoms: _412  and  _414
REMARK  175  A    between atoms: _414  and  _415
REMARK  176  A    between atoms: _414  and  _417
REMARK  177  A    between atoms: _417  and  _418
REMARK  178  A    between atoms: _421  and  _423
REMARK  179  A    between atoms: _423  and  _424
REMARK  180  A    between atoms: _426  and  _428
REMARK  181  A    between atoms: _428  and  _429
REMARK  182  A    between atoms: _431  and  _433
REMARK  183  A    between atoms: _433  and  _434
REMARK  184  A    between atoms: _433  and  _436
REMARK  185  A    between atoms: _436  and  _437
REMARK  186  A    between atoms: _440  and  _442
REMARK  187  A    between atoms: _442  and  _443
REMARK  188  A    between atoms: _445  and  _447
REMARK  189  A    between atoms: _447  and  _448
REMARK  190  A    between atoms: _450  and  _452
REMARK  191  A    between atoms: _452  and  _453
REMARK  192  A    between atoms: _452  and  _455
REMARK  193  A    between atoms: _455  and  _456
REMARK  194  A    between atoms: _462  and  _464
REMARK  195  A    between atoms: _464  and  _465
REMARK  196  A    between atoms: _464  and  _467
REMARK  197  A    between atoms: _467  and  _468
REMARK  198  A    between atoms: _471  and  _473
REMARK  199  A    between atoms: _473  and  _474
REMARK  200  A    between atoms: _473  and  _476
REMARK  201  A    between atoms: _479  and  _481
REMARK  202  A    between atoms: _481  and  _482
REMARK  203  A    between atoms: _481  and  _484
REMARK  204  A    between atoms: _484  and  _485
REMARK  205  A    between atoms: _489  and  _490
REMARK  206  A    between atoms: _495  and  _497
REMARK  207  A    between atoms: _497  and  _498
REMARK  208  A    between atoms: _497  and  _500
REMARK  209  A    between atoms: _500  and  _501
REMARK  210  A    between atoms: _505  and  _506
REMARK  211  A    between atoms: _511  and  _513
REMARK  212  A    between atoms: _513  and  _514
REMARK  213  A    between atoms: _513  and  _516
REMARK  214  A    between atoms: _519  and  _521
REMARK  215  A    between atoms: _521  and  _522
REMARK  216  A    between atoms: _521  and  _524
REMARK  217  A    between atoms: _524  and  _525
REMARK  218  A    between atoms: _530  and  _532
REMARK  219  A    between atoms: _532  and  _533
REMARK  220  A    between atoms: _532  and  _535
REMARK  221  A    between atoms: _535  and  _536
REMARK  222  A    between atoms: _539  and  _541
REMARK  223  A    between atoms: _541  and  _542
REMARK  224  A    between atoms: _541  and  _544
REMARK  225  A    between atoms: _544  and  _545
REMARK  226  A    between atoms: _548  and  _550
REMARK  227  A    between atoms: _550  and  _551
REMARK  228  A    between atoms: _553  and  _555
REMARK  229  A    between atoms: _555  and  _556
REMARK  230  A    between atoms: _555  and  _558
REMARK  231  A    between atoms: _558  and  _559
REMARK  232  A    between atoms: _559  and  _560
REMARK  233  A    between atoms: _560  and  _561
REMARK                            x       y       z     vdW  Elec       q    Type
REMARK                         _______ _______ _______ _____ _____    ______ ____
ROOT
ATOM      1  O   HOH     1      22.270  15.216  -1.940  0.00  0.00    +0.000 OA
ENDROOT
TORSDOF 0
REMARK  Name = ../refined-set-2016/1ec1/1ec1_pocket.pdb
REMARK  233 active torsions:
REMARK  status: ('A' for Active; 'I' for Inactive)
REMARK    1  A    between atoms: _1  and  _3
REMARK    2  A    between atoms: _3  and  _4
REMARK    3  A    between atoms: _3  and  _6
REMARK    4  A    between atoms: _6  and  _7
REMARK    5  A    between atoms: _7  and  _8
REMARK    6  A    between atoms: _8  and  _9
REMARK    7  A    between atoms: _18  and  _20
REMARK    8  A    between atoms: _20  and  _21
REMARK    9  A    between atoms: _20  and  _23
REMARK   10  A    between atoms: _23  and  _24
REMARK   11  A    between atoms: _27  and  _29
REMARK   12  A    between atoms: _29  and  _30
REMARK   13  A    between atoms: _29  and  _32
REMARK   14  A    between atoms: _32  and  _33
REMARK   15  A    between atoms: _36  and  _38
REMARK   16  A    between atoms: _38  and  _39
REMARK   17  A    between atoms: _38  and  _41
REMARK   18  A    between atoms: _41  and  _42
REMARK   19  A    between atoms: _45  and  _47
REMARK   20  A    between atoms: _47  and  _48
REMARK   21  A    between atoms: _47  and  _50
REMARK   22  A    between atoms: _50  and  _51
REMARK   23  A    between atoms: _54  and  _56
REMARK   24  A    between atoms: _56  and  _57
REMARK   25  A    between atoms: _56  and  _59
REMARK   26  A    between atoms: _59  and  _60
REMARK   27  A    between atoms: _63  and  _65
REMARK   28  A    between atoms: _65  and  _66
REMARK   29  A    between atoms: _68  and  _70
REMARK   30  A    between atoms: _70  and  _71
REMARK   31  A    between atoms: _74  and  _76
REMARK   32  A    between atoms: _76  and  _77
REMARK   33  A    between atoms: _76  and  _79
REMARK   34  A    between atoms: _79  and  _80
REMARK   35  A    between atoms: _83  and  _85
REMARK   36  A    between atoms: _85  and  _86
REMARK   37  A    between atoms: _85  and  _88
REMARK   38  A    between atoms: _88  and  _89
REMARK   39  A    between atoms: _92  and  _94
REMARK   40  A    between atoms: _94  and  _95
REMARK   41  A    between atoms: _94  and  _97
REMARK   42  A    between atoms: _97  and  _98
REMARK   43  A    between atoms: _101  and  _103
REMARK   44  A    between atoms: _103  and  _104
REMARK   45  A    between atoms: _103  and  _106
REMARK   46  A    between atoms: _109  and  _111
REMARK   47  A    between atoms: _111  and  _112
REMARK   48  A    between atoms: _111  and  _114
REMARK   49  A    between atoms: _114  and  _115
REMARK   50  A    between atoms: _115  and  _116
REMARK   51  A    between atoms: _116  and  _117
REMARK   52  A    between atoms: _117  and  _118
REMARK   53  A    between atoms: _122  and  _124
REMARK   54  A    between atoms: _124  and  _125
REMARK   55  A    between atoms: _124  and  _127
REMARK   56  A    between atoms: _127  and  _128
REMARK   57  A    between atoms: _128  and  _129
REMARK   58  A    between atoms: _131  and  _133
REMARK   59  A    between atoms: _133  and  _134
REMARK   60  A    between atoms: _133  and  _136
REMARK   61  A    between atoms: _136  and  _137
REMARK   62  A    between atoms: _140  and  _142
REMARK   63  A    between atoms: _142  and  _143
REMARK   64  A    between atoms: _145  and  _147
REMARK   65  A    between atoms: _147  and  _148
REMARK   66  A    between atoms: _150  and  _152
REMARK   67  A    between atoms: _152  and  _153
REMARK   68  A    between atoms: _152  and  _155
REMARK   69  A    between atoms: _155  and  _156
REMARK   70  A    between atoms: _159  and  _161
REMARK   71  A    between atoms: _161  and  _162
REMARK   72  A    between atoms: _164  and  _166
REMARK   73  A    between atoms: _166  and  _167
REMARK   74  A    between atoms: _169  and  _171
REMARK   75  A    between atoms: _171  and  _172
REMARK   76  A    between atoms: _171  and  _174
REMARK   77  A    between atoms: _174  and  _175
REMARK   78  A    between atoms: _181  and  _183
REMARK   79  A    between atoms: _183  and  _184
REMARK   80  A    between atoms: _183  and  _186
REMARK   81  A    between atoms: _186  and  _187
REMARK   82  A    between atoms: _190  and  _192
REMARK   83  A    between atoms: _192  and  _193
REMARK   84  A    between atoms: _192  and  _195
REMARK   85  A    between atoms: _198  and  _200
REMARK   86  A    between atoms: _200  and  _201
REMARK   87  A    between atoms: _200  and  _203
REMARK   88  A    between atoms: _203  and  _204
REMARK   89  A    between atoms: _207  and  _209
REMARK   90  A    between atoms: _209  and  _210
REMARK   91  A    between atoms: _209  and  _212
REMARK   92  A    between atoms: _212  and  _213
REMARK   93  A    between atoms: _217  and  _218
REMARK   94  A    between atoms: _223  and  _225
REMARK   95  A    between atoms: _225  and  _226
REMARK   96  A    between atoms: _225  and  _228
REMARK   97  A    between atoms: _231  and  _233
REMARK   98  A    between atoms: _233  and  _234
REMARK   99  A    between atoms: _233  and  _236
REMARK  100  A    between atoms: _236  and  _237
REMARK  101  A    between atoms: _242  and  _244
REMARK  102  A    between atoms: _244  and  _245
REMARK  103  A    between atoms: _244  and  _247
REMARK  104  A    between atoms: _247  and  _248
REMARK  105  A    between atoms: _251  and  _253
REMARK  106  A    between atoms: _253  and  _254
REMARK  107  A    between atoms: _253  and  _256
REMARK  108  A    between atoms: _256  and  _257
REMARK  109  A    between atoms: _260  and  _262
REMARK  110  A    between atoms: _262  and  _263
REMARK  111  A    between atoms: _265  and  _267
REMARK  112  A    between atoms: _267  and  _268
REMARK  113  A    between atoms: _267  and  _270
REMARK  114  A    between atoms: _270  and  _271
REMARK  115  A    between atoms: _271  and  _272
REMARK  116  A    between atoms: _272  and  _273
REMARK  117  A    between atoms: _282  and  _284
REMARK  118  A    between atoms: _284  and  _285
REMARK  119  A    between atoms: _284  and  _287
REMARK  120  A    between atoms: _287  and  _288
REMARK  121  A    between atoms: _288  and  _289
REMARK  122  A    between atoms: _289  and  _290
REMARK  123  A    between atoms: _299  and  _301
REMARK  124  A    between atoms: _301  and  _302
REMARK  125  A    between atoms: _301  and  _304
REMARK  126  A    between atoms: _304  and  _305
REMARK  127  A    between atoms: _308  and  _310
REMARK  128  A    between atoms: _310  and  _311
REMARK  129  A    between atoms: _310  and  _313
REMARK  130  A    between atoms: _313  and  _314
REMARK  131  A    between atoms: _317  and  _319
REMARK  132  A    between atoms: _319  and  _320
REMARK  133  A    between atoms: _319  and  _322
REMARK  134  A    between atoms: _322  and  _323
REMARK  135  A    between atoms: _326  and  _328
REMARK  136  A    between atoms: _328  and  _329
REMARK  137  A    between atoms: _328  and  _331
REMARK  138  A    between atoms: _331  and  _332
REMARK  139  A    between atoms: _335  and  _337
REMARK  140  A    between atoms: _337  and  _338
REMARK  141  A    between atoms: _337  and  _340
REMARK  142  A    between atoms: _340  and  _341
REMARK  143  A    between atoms: _344  and  _346
REMARK  144  A    between atoms: _346  and  _347
REMARK  145  A    between atoms: _349  and  _351
REMARK  146  A    between atoms: _351  and  _352
REMARK  147  A    between atoms: _355  and  _357
REMARK  148  A    between atoms: _357  and  _358
REMARK  149  A    between atoms: _357  and  _360
REMARK  150  A    between atoms: _360  and  _361
REMARK  151  A    between atoms: _364  and  _366
REMARK  152  A    between atoms: _366  and  _367
REMARK  153  A    between atoms: _366  and  _369
REMARK  154  A    between atoms: _369  and  _370
REMARK  155  A    between atoms: _373  and  _375
REMARK  156  A    between atoms: _375  and  _376
REMARK  157  A    between atoms: _375  and  _378
REMARK  158  A    between atoms: _378  and  _379
REMARK  159  A    between atoms: _382  and  _384
REMARK  160  A    between atoms: _384  and  _385
REMARK  161  A    between atoms: _384  and  _387
REMARK  162  A    between atoms: _390  and  _392
REMARK  163  A    between atoms: _392  and  _393
REMARK  164  A    between atoms: _392  and  _395
REMARK  165  A    between atoms: _395  and  _396
REMARK  166  A    between atoms: _396  and  _397
REMARK  167  A    between atoms: _397  and  _398
REMARK  168  A    between atoms: _398  and  _399
REMARK  169  A    between atoms: _403  and  _405
REMARK  170  A    between atoms: _405  and  _406
REMARK  171  A    between atoms: _405  and  _408
REMARK  172  A    between atoms: _408  and  _409
REMARK  173  A    between atoms: _409  and  _410
REMARK  174  A    between atoms: _412  and  _414
REMARK  175  A    between atoms: _414  and  _415
REMARK  176  A    between atoms: _414  and  _417
REMARK  177  A    between atoms: _417  and  _418
REMARK  178  A    between atoms: _421  and  _423
REMARK  179  A    between atoms: _423  and  _424
REMARK  180  A    between atoms: _426  and  _428
REMARK  181  A    between atoms: _428  and  _429
REMARK  182  A    between atoms: _431  and  _433
REMARK  183  A    between atoms: _433  and  _434
REMARK  184  A    between atoms: _433  and  _436
REMARK  185  A    between atoms: _436  and  _437
REMARK  186  A    between atoms: _440  and  _442
REMARK  187  A    between atoms: _442  and  _443
REMARK  188  A    between atoms: _445  and  _447
REMARK  189  A    between atoms: _447  and  _448
REMARK  190  A    between atoms: _450  and  _452
REMARK  191  A    between atoms: _452  and  _453
REMARK  192  A    between atoms: _452  and  _455
REMARK  193  A    between atoms: _455  and  _456
REMARK  194  A    between atoms: _462  and  _464
REMARK  195  A    between atoms: _464  and  _465
REMARK  196  A    between atoms: _464  and  _467
REMARK  197  A    between atoms: _467  and  _468
REMARK  198  A    between atoms: _471  and  _473
REMARK  199  A    between atoms: _473  and  _474
REMARK  200  A    between atoms: _473  and  _476
REMARK  201  A    between atoms: _479  and  _481
REMARK  202  A    between atoms: _481  and  _482
REMARK  203  A    between atoms: _481  and  _484
REMARK  204  A    between atoms: _484  and  _485
REMARK  205  A    between atoms: _489  and  _490
REMARK  206  A    between atoms: _495  and  _497
REMARK  207  A    between atoms: _497  and  _498
REMARK  208  A    between atoms: _497  and  _500
REMARK  209  A    between atoms: _500  and  _501
REMARK  210  A    between atoms: _505  and  _506
REMARK  211  A    between atoms: _511  and  _513
REMARK  212  A    between atoms: _513  and  _514
REMARK  213  A    between atoms: _513  and  _516
REMARK  214  A    between atoms: _519  and  _521
REMARK  215  A    between atoms: _521  and  _522
REMARK  216  A    between atoms: _521  and  _524
REMARK  217  A    between atoms: _524  and  _525
REMARK  218  A    between atoms: _530  and  _532
REMARK  219  A    between atoms: _532  and  _533
REMARK  220  A    between atoms: _532  and  _535
REMARK  221  A    between atoms: _535  and  _536
REMARK  222  A    between atoms: _539  and  _541
REMARK  223  A    between atoms: _541  and  _542
REMARK  224  A    between atoms: _541  and  _544
REMARK  225  A    between atoms: _544  and  _545
REMARK  226  A    between atoms: _548  and  _550
REMARK  227  A    between atoms: _550  and  _551
REMARK  228  A    between atoms: _553  and  _555
REMARK  229  A    between atoms: _555  and  _556
REMARK  230  A    between atoms: _555  and  _558
REMARK  231  A    between atoms: _558  and  _559
REMARK  232  A    between atoms: _559  and  _560
REMARK  233  A    between atoms: _560  and  _561
REMARK                            x       y       z     vdW  Elec       q    Type
REMARK                         _______ _______ _______ _____ _____    ______ ____
ROOT
ATOM      1  O   HOH     1      25.311  17.686   3.022  0.00  0.00    +0.000 OA
ENDROOT
TORSDOF 0
REMARK  Name = ../refined-set-2016/1ec1/1ec1_pocket.pdb
REMARK  233 active torsions:
REMARK  status: ('A' for Active; 'I' for Inactive)
REMARK    1  A    between atoms: _1  and  _3
REMARK    2  A    between atoms: _3  and  _4
REMARK    3  A    between atoms: _3  and  _6
REMARK    4  A    between atoms: _6  and  _7
REMARK    5  A    between atoms: _7  and  _8
REMARK    6  A    between atoms: _8  and  _9
REMARK    7  A    between atoms: _18  and  _20
REMARK    8  A    between atoms: _20  and  _21
REMARK    9  A    between atoms: _20  and  _23
REMARK   10  A    between atoms: _23  and  _24
REMARK   11  A    between atoms: _27  and  _29
REMARK   12  A    between atoms: _29  and  _30
REMARK   13  A    between atoms: _29  and  _32
REMARK   14  A    between atoms: _32  and  _33
REMARK   15  A    between atoms: _36  and  _38
REMARK   16  A    between atoms: _38  and  _39
REMARK   17  A    between atoms: _38  and  _41
REMARK   18  A    between atoms: _41  and  _42
REMARK   19  A    between atoms: _45  and  _47
REMARK   20  A    between atoms: _47  and  _48
REMARK   21  A    between atoms: _47  and  _50
REMARK   22  A    between atoms: _50  and  _51
REMARK   23  A    between atoms: _54  and  _56
REMARK   24  A    between atoms: _56  and  _57
REMARK   25  A    between atoms: _56  and  _59
REMARK   26  A    between atoms: _59  and  _60
REMARK   27  A    between atoms: _63  and  _65
REMARK   28  A    between atoms: _65  and  _66
REMARK   29  A    between atoms: _68  and  _70
REMARK   30  A    between atoms: _70  and  _71
REMARK   31  A    between atoms: _74  and  _76
REMARK   32  A    between atoms: _76  and  _77
REMARK   33  A    between atoms: _76  and  _79
REMARK   34  A    between atoms: _79  and  _80
REMARK   35  A    between atoms: _83  and  _85
REMARK   36  A    between atoms: _85  and  _86
REMARK   37  A    between atoms: _85  and  _88
REMARK   38  A    between atoms: _88  and  _89
REMARK   39  A    between atoms: _92  and  _94
REMARK   40  A    between atoms: _94  and  _95
REMARK   41  A    between atoms: _94  and  _97
REMARK   42  A    between atoms: _97  and  _98
REMARK   43  A    between atoms: _101  and  _103
REMARK   44  A    between atoms: _103  and  _104
REMARK   45  A    between atoms: _103  and  _106
REMARK   46  A    between atoms: _109  and  _111
REMARK   47  A    between atoms: _111  and  _112
REMARK   48  A    between atoms: _111  and  _114
REMARK   49  A    between atoms: _114  and  _115
REMARK   50  A    between atoms: _115  and  _116
REMARK   51  A    between atoms: _116  and  _117
REMARK   52  A    between atoms: _117  and  _118
REMARK   53  A    between atoms: _122  and  _124
REMARK   54  A    between atoms: _124  and  _125
REMARK   55  A    between atoms: _124  and  _127
REMARK   56  A    between atoms: _127  and  _128
REMARK   57  A    between atoms: _128  and  _129
REMARK   58  A    between atoms: _131  and  _133
REMARK   59  A    between atoms: _133  and  _134
REMARK   60  A    between atoms: _133  and  _136
REMARK   61  A    between atoms: _136  and  _137
REMARK   62  A    between atoms: _140  and  _142
REMARK   63  A    between atoms: _142  and  _143
REMARK   64  A    between atoms: _145  and  _147
REMARK   65  A    between atoms: _147  and  _148
REMARK   66  A    between atoms: _150  and  _152
REMARK   67  A    between atoms: _152  and  _153
REMARK   68  A    between atoms: _152  and  _155
REMARK   69  A    between atoms: _155  and  _156
REMARK   70  A    between atoms: _159  and  _161
REMARK   71  A    between atoms: _161  and  _162
REMARK   72  A    between atoms: _164  and  _166
REMARK   73  A    between atoms: _166  and  _167
REMARK   74  A    between atoms: _169  and  _171
REMARK   75  A    between atoms: _171  and  _172
REMARK   76  A    between atoms: _171  and  _174
REMARK   77  A    between atoms: _174  and  _175
REMARK   78  A    between atoms: _181  and  _183
REMARK   79  A    between atoms: _183  and  _184
REMARK   80  A    between atoms: _183  and  _186
REMARK   81  A    between atoms: _186  and  _187
REMARK   82  A    between atoms: _190  and  _192
REMARK   83  A    between atoms: _192  and  _193
REMARK   84  A    between atoms: _192  and  _195
REMARK   85  A    between atoms: _198  and  _200
REMARK   86  A    between atoms: _200  and  _201
REMARK   87  A    between atoms: _200  and  _203
REMARK   88  A    between atoms: _203  and  _204
REMARK   89  A    between atoms: _207  and  _209
REMARK   90  A    between atoms: _209  and  _210
REMARK   91  A    between atoms: _209  and  _212
REMARK   92  A    between atoms: _212  and  _213
REMARK   93  A    between atoms: _217  and  _218
REMARK   94  A    between atoms: _223  and  _225
REMARK   95  A    between atoms: _225  and  _226
REMARK   96  A    between atoms: _225  and  _228
REMARK   97  A    between atoms: _231  and  _233
REMARK   98  A    between atoms: _233  and  _234
REMARK   99  A    between atoms: _233  and  _236
REMARK  100  A    between atoms: _236  and  _237
REMARK  101  A    between atoms: _242  and  _244
REMARK  102  A    between atoms: _244  and  _245
REMARK  103  A    between atoms: _244  and  _247
REMARK  104  A    between atoms: _247  and  _248
REMARK  105  A    between atoms: _251  and  _253
REMARK  106  A    between atoms: _253  and  _254
REMARK  107  A    between atoms: _253  and  _256
REMARK  108  A    between atoms: _256  and  _257
REMARK  109  A    between atoms: _260  and  _262
REMARK  110  A    between atoms: _262  and  _263
REMARK  111  A    between atoms: _265  and  _267
REMARK  112  A    between atoms: _267  and  _268
REMARK  113  A    between atoms: _267  and  _270
REMARK  114  A    between atoms: _270  and  _271
REMARK  115  A    between atoms: _271  and  _272
REMARK  116  A    between atoms: _272  and  _273
REMARK  117  A    between atoms: _282  and  _284
REMARK  118  A    between atoms: _284  and  _285
REMARK  119  A    between atoms: _284  and  _287
REMARK  120  A    between atoms: _287  and  _288
REMARK  121  A    between atoms: _288  and  _289
REMARK  122  A    between atoms: _289  and  _290
REMARK  123  A    between atoms: _299  and  _301
REMARK  124  A    between atoms: _301  and  _302
REMARK  125  A    between atoms: _301  and  _304
REMARK  126  A    between atoms: _304  and  _305
REMARK  127  A    between atoms: _308  and  _310
REMARK  128  A    between atoms: _310  and  _311
REMARK  129  A    between atoms: _310  and  _313
REMARK  130  A    between atoms: _313  and  _314
REMARK  131  A    between atoms: _317  and  _319
REMARK  132  A    between atoms: _319  and  _320
REMARK  133  A    between atoms: _319  and  _322
REMARK  134  A    between atoms: _322  and  _323
REMARK  135  A    between atoms: _326  and  _328
REMARK  136  A    between atoms: _328  and  _329
REMARK  137  A    between atoms: _328  and  _331
REMARK  138  A    between atoms: _331  and  _332
REMARK  139  A    between atoms: _335  and  _337
REMARK  140  A    between atoms: _337  and  _338
REMARK  141  A    between atoms: _337  and  _340
REMARK  142  A    between atoms: _340  and  _341
REMARK  143  A    between atoms: _344  and  _346
REMARK  144  A    between atoms: _346  and  _347
REMARK  145  A    between atoms: _349  and  _351
REMARK  146  A    between atoms: _351  and  _352
REMARK  147  A    between atoms: _355  and  _357
REMARK  148  A    between atoms: _357  and  _358
REMARK  149  A    between atoms: _357  and  _360
REMARK  150  A    between atoms: _360  and  _361
REMARK  151  A    between atoms: _364  and  _366
REMARK  152  A    between atoms: _366  and  _367
REMARK  153  A    between atoms: _366  and  _369
REMARK  154  A    between atoms: _369  and  _370
REMARK  155  A    between atoms: _373  and  _375
REMARK  156  A    between atoms: _375  and  _376
REMARK  157  A    between atoms: _375  and  _378
REMARK  158  A    between atoms: _378  and  _379
REMARK  159  A    between atoms: _382  and  _384
REMARK  160  A    between atoms: _384  and  _385
REMARK  161  A    between atoms: _384  and  _387
REMARK  162  A    between atoms: _390  and  _392
REMARK  163  A    between atoms: _392  and  _393
REMARK  164  A    between atoms: _392  and  _395
REMARK  165  A    between atoms: _395  and  _396
REMARK  166  A    between atoms: _396  and  _397
REMARK  167  A    between atoms: _397  and  _398
REMARK  168  A    between atoms: _398  and  _399
REMARK  169  A    between atoms: _403  and  _405
REMARK  170  A    between atoms: _405  and  _406
REMARK  171  A    between atoms: _405  and  _408
REMARK  172  A    between atoms: _408  and  _409
REMARK  173  A    between atoms: _409  and  _410
REMARK  174  A    between atoms: _412  and  _414
REMARK  175  A    between atoms: _414  and  _415
REMARK  176  A    between atoms: _414  and  _417
REMARK  177  A    between atoms: _417  and  _418
REMARK  178  A    between atoms: _421  and  _423
REMARK  179  A    between atoms: _423  and  _424
REMARK  180  A    between atoms: _426  and  _428
REMARK  181  A    between atoms: _428  and  _429
REMARK  182  A    between atoms: _431  and  _433
REMARK  183  A    between atoms: _433  and  _434
REMARK  184  A    between atoms: _433  and  _436
REMARK  185  A    between atoms: _436  and  _437
REMARK  186  A    between atoms: _440  and  _442
REMARK  187  A    between atoms: _442  and  _443
REMARK  188  A    between atoms: _445  and  _447
REMARK  189  A    between atoms: _447  and  _448
REMARK  190  A    between atoms: _450  and  _452
REMARK  191  A    between atoms: _452  and  _453
REMARK  192  A    between atoms: _452  and  _455
REMARK  193  A    between atoms: _455  and  _456
REMARK  194  A    between atoms: _462  and  _464
REMARK  195  A    between atoms: _464  and  _465
REMARK  196  A    between atoms: _464  and  _467
REMARK  197  A    between atoms: _467  and  _468
REMARK  198  A    between atoms: _471  and  _473
REMARK  199  A    between atoms: _473  and  _474
REMARK  200  A    between atoms: _473  and  _476
REMARK  201  A    between atoms: _479  and  _481
REMARK  202  A    between atoms: _481  and  _482
REMARK  203  A    between atoms: _481  and  _484
REMARK  204  A    between atoms: _484  and  _485
REMARK  205  A    between atoms: _489  and  _490
REMARK  206  A    between atoms: _495  and  _497
REMARK  207  A    between atoms: _497  and  _498
REMARK  208  A    between atoms: _497  and  _500
REMARK  209  A    between atoms: _500  and  _501
REMARK  210  A    between atoms: _505  and  _506
REMARK  211  A    between atoms: _511  and  _513
REMARK  212  A    between atoms: _513  and  _514
REMARK  213  A    between atoms: _513  and  _516
REMARK  214  A    between atoms: _519  and  _521
REMARK  215  A    between atoms: _521  and  _522
REMARK  216  A    between atoms: _521  and  _524
REMARK  217  A    between atoms: _524  and  _525
REMARK  218  A    between atoms: _530  and  _532
REMARK  219  A    between atoms: _532  and  _533
REMARK  220  A    between atoms: _532  and  _535
REMARK  221  A    between atoms: _535  and  _536
REMARK  222  A    between atoms: _539  and  _541
REMARK  223  A    between atoms: _541  and  _542
REMARK  224  A    between atoms: _541  and  _544
REMARK  225  A    between atoms: _544  and  _545
REMARK  226  A    between atoms: _548  and  _550
REMARK  227  A    between atoms: _550  and  _551
REMARK  228  A    between atoms: _553  and  _555
REMARK  229  A    between atoms: _555  and  _556
REMARK  230  A    between atoms: _555  and  _558
REMARK  231  A    between atoms: _558  and  _559
REMARK  232  A    between atoms: _559  and  _560
REMARK  233  A    between atoms: _560  and  _561
REMARK                            x       y       z     vdW  Elec       q    Type
REMARK                         _______ _______ _______ _____ _____    ______ ____
ROOT
ATOM      1  O   HOH     1      10.297  17.409  13.983  0.00  0.00    +0.000 OA
ENDROOT
TORSDOF 0
REMARK  Name = ../refined-set-2016/1ec1/1ec1_pocket.pdb
REMARK  233 active torsions:
REMARK  status: ('A' for Active; 'I' for Inactive)
REMARK    1  A    between atoms: _1  and  _3
REMARK    2  A    between atoms: _3  and  _4
REMARK    3  A    between atoms: _3  and  _6
REMARK    4  A    between atoms: _6  and  _7
REMARK    5  A    between atoms: _7  and  _8
REMARK    6  A    between atoms: _8  and  _9
REMARK    7  A    between atoms: _18  and  _20
REMARK    8  A    between atoms: _20  and  _21
REMARK    9  A    between atoms: _20  and  _23
REMARK   10  A    between atoms: _23  and  _24
REMARK   11  A    between atoms: _27  and  _29
REMARK   12  A    between atoms: _29  and  _30
REMARK   13  A    between atoms: _29  and  _32
REMARK   14  A    between atoms: _32  and  _33
REMARK   15  A    between atoms: _36  and  _38
REMARK   16  A    between atoms: _38  and  _39
REMARK   17  A    between atoms: _38  and  _41
REMARK   18  A    between atoms: _41  and  _42
REMARK   19  A    between atoms: _45  and  _47
REMARK   20  A    between atoms: _47  and  _48
REMARK   21  A    between atoms: _47  and  _50
REMARK   22  A    between atoms: _50  and  _51
REMARK   23  A    between atoms: _54  and  _56
REMARK   24  A    between atoms: _56  and  _57
REMARK   25  A    between atoms: _56  and  _59
REMARK   26  A    between atoms: _59  and  _60
REMARK   27  A    between atoms: _63  and  _65
REMARK   28  A    between atoms: _65  and  _66
REMARK   29  A    between atoms: _68  and  _70
REMARK   30  A    between atoms: _70  and  _71
REMARK   31  A    between atoms: _74  and  _76
REMARK   32  A    between atoms: _76  and  _77
REMARK   33  A    between atoms: _76  and  _79
REMARK   34  A    between atoms: _79  and  _80
REMARK   35  A    between atoms: _83  and  _85
REMARK   36  A    between atoms: _85  and  _86
REMARK   37  A    between atoms: _85  and  _88
REMARK   38  A    between atoms: _88  and  _89
REMARK   39  A    between atoms: _92  and  _94
REMARK   40  A    between atoms: _94  and  _95
REMARK   41  A    between atoms: _94  and  _97
REMARK   42  A    between atoms: _97  and  _98
REMARK   43  A    between atoms: _101  and  _103
REMARK   44  A    between atoms: _103  and  _104
REMARK   45  A    between atoms: _103  and  _106
REMARK   46  A    between atoms: _109  and  _111
REMARK   47  A    between atoms: _111  and  _112
REMARK   48  A    between atoms: _111  and  _114
REMARK   49  A    between atoms: _114  and  _115
REMARK   50  A    between atoms: _115  and  _116
REMARK   51  A    between atoms: _116  and  _117
REMARK   52  A    between atoms: _117  and  _118
REMARK   53  A    between atoms: _122  and  _124
REMARK   54  A    between atoms: _124  and  _125
REMARK   55  A    between atoms: _124  and  _127
REMARK   56  A    between atoms: _127  and  _128
REMARK   57  A    between atoms: _128  and  _129
REMARK   58  A    between atoms: _131  and  _133
REMARK   59  A    between atoms: _133  and  _134
REMARK   60  A    between atoms: _133  and  _136
REMARK   61  A    between atoms: _136  and  _137
REMARK   62  A    between atoms: _140  and  _142
REMARK   63  A    between atoms: _142  and  _143
REMARK   64  A    between atoms: _145  and  _147
REMARK   65  A    between atoms: _147  and  _148
REMARK   66  A    between atoms: _150  and  _152
REMARK   67  A    between atoms: _152  and  _153
REMARK   68  A    between atoms: _152  and  _155
REMARK   69  A    between atoms: _155  and  _156
REMARK   70  A    between atoms: _159  and  _161
REMARK   71  A    between atoms: _161  and  _162
REMARK   72  A    between atoms: _164  and  _166
REMARK   73  A    between atoms: _166  and  _167
REMARK   74  A    between atoms: _169  and  _171
REMARK   75  A    between atoms: _171  and  _172
REMARK   76  A    between atoms: _171  and  _174
REMARK   77  A    between atoms: _174  and  _175
REMARK   78  A    between atoms: _181  and  _183
REMARK   79  A    between atoms: _183  and  _184
REMARK   80  A    between atoms: _183  and  _186
REMARK   81  A    between atoms: _186  and  _187
REMARK   82  A    between atoms: _190  and  _192
REMARK   83  A    between atoms: _192  and  _193
REMARK   84  A    between atoms: _192  and  _195
REMARK   85  A    between atoms: _198  and  _200
REMARK   86  A    between atoms: _200  and  _201
REMARK   87  A    between atoms: _200  and  _203
REMARK   88  A    between atoms: _203  and  _204
REMARK   89  A    between atoms: _207  and  _209
REMARK   90  A    between atoms: _209  and  _210
REMARK   91  A    between atoms: _209  and  _212
REMARK   92  A    between atoms: _212  and  _213
REMARK   93  A    between atoms: _217  and  _218
REMARK   94  A    between atoms: _223  and  _225
REMARK   95  A    between atoms: _225  and  _226
REMARK   96  A    between atoms: _225  and  _228
REMARK   97  A    between atoms: _231  and  _233
REMARK   98  A    between atoms: _233  and  _234
REMARK   99  A    between atoms: _233  and  _236
REMARK  100  A    between atoms: _236  and  _237
REMARK  101  A    between atoms: _242  and  _244
REMARK  102  A    between atoms: _244  and  _245
REMARK  103  A    between atoms: _244  and  _247
REMARK  104  A    between atoms: _247  and  _248
REMARK  105  A    between atoms: _251  and  _253
REMARK  106  A    between atoms: _253  and  _254
REMARK  107  A    between atoms: _253  and  _256
REMARK  108  A    between atoms: _256  and  _257
REMARK  109  A    between atoms: _260  and  _262
REMARK  110  A    between atoms: _262  and  _263
REMARK  111  A    between atoms: _265  and  _267
REMARK  112  A    between atoms: _267  and  _268
REMARK  113  A    between atoms: _267  and  _270
REMARK  114  A    between atoms: _270  and  _271
REMARK  115  A    between atoms: _271  and  _272
REMARK  116  A    between atoms: _272  and  _273
REMARK  117  A    between atoms: _282  and  _284
REMARK  118  A    between atoms: _284  and  _285
REMARK  119  A    between atoms: _284  and  _287
REMARK  120  A    between atoms: _287  and  _288
REMARK  121  A    between atoms: _288  and  _289
REMARK  122  A    between atoms: _289  and  _290
REMARK  123  A    between atoms: _299  and  _301
REMARK  124  A    between atoms: _301  and  _302
REMARK  125  A    between atoms: _301  and  _304
REMARK  126  A    between atoms: _304  and  _305
REMARK  127  A    between atoms: _308  and  _310
REMARK  128  A    between atoms: _310  and  _311
REMARK  129  A    between atoms: _310  and  _313
REMARK  130  A    between atoms: _313  and  _314
REMARK  131  A    between atoms: _317  and  _319
REMARK  132  A    between atoms: _319  and  _320
REMARK  133  A    between atoms: _319  and  _322
REMARK  134  A    between atoms: _322  and  _323
REMARK  135  A    between atoms: _326  and  _328
REMARK  136  A    between atoms: _328  and  _329
REMARK  137  A    between atoms: _328  and  _331
REMARK  138  A    between atoms: _331  and  _332
REMARK  139  A    between atoms: _335  and  _337
REMARK  140  A    between atoms: _337  and  _338
REMARK  141  A    between atoms: _337  and  _340
REMARK  142  A    between atoms: _340  and  _341
REMARK  143  A    between atoms: _344  and  _346
REMARK  144  A    between atoms: _346  and  _347
REMARK  145  A    between atoms: _349  and  _351
REMARK  146  A    between atoms: _351  and  _352
REMARK  147  A    between atoms: _355  and  _357
REMARK  148  A    between atoms: _357  and  _358
REMARK  149  A    between atoms: _357  and  _360
REMARK  150  A    between atoms: _360  and  _361
REMARK  151  A    between atoms: _364  and  _366
REMARK  152  A    between atoms: _366  and  _367
REMARK  153  A    between atoms: _366  and  _369
REMARK  154  A    between atoms: _369  and  _370
REMARK  155  A    between atoms: _373  and  _375
REMARK  156  A    between atoms: _375  and  _376
REMARK  157  A    between atoms: _375  and  _378
REMARK  158  A    between atoms: _378  and  _379
REMARK  159  A    between atoms: _382  and  _384
REMARK  160  A    between atoms: _384  and  _385
REMARK  161  A    between atoms: _384  and  _387
REMARK  162  A    between atoms: _390  and  _392
REMARK  163  A    between atoms: _392  and  _393
REMARK  164  A    between atoms: _392  and  _395
REMARK  165  A    between atoms: _395  and  _396
REMARK  166  A    between atoms: _396  and  _397
REMARK  167  A    between atoms: _397  and  _398
REMARK  168  A    between atoms: _398  and  _399
REMARK  169  A    between atoms: _403  and  _405
REMARK  170  A    between atoms: _405  and  _406
REMARK  171  A    between atoms: _405  and  _408
REMARK  172  A    between atoms: _408  and  _409
REMARK  173  A    between atoms: _409  and  _410
REMARK  174  A    between atoms: _412  and  _414
REMARK  175  A    between atoms: _414  and  _415
REMARK  176  A    between atoms: _414  and  _417
REMARK  177  A    between atoms: _417  and  _418
REMARK  178  A    between atoms: _421  and  _423
REMARK  179  A    between atoms: _423  and  _424
REMARK  180  A    between atoms: _426  and  _428
REMARK  181  A    between atoms: _428  and  _429
REMARK  182  A    between atoms: _431  and  _433
REMARK  183  A    between atoms: _433  and  _434
REMARK  184  A    between atoms: _433  and  _436
REMARK  185  A    between atoms: _436  and  _437
REMARK  186  A    between atoms: _440  and  _442
REMARK  187  A    between atoms: _442  and  _443
REMARK  188  A    between atoms: _445  and  _447
REMARK  189  A    between atoms: _447  and  _448
REMARK  190  A    between atoms: _450  and  _452
REMARK  191  A    between atoms: _452  and  _453
REMARK  192  A    between atoms: _452  and  _455
REMARK  193  A    between atoms: _455  and  _456
REMARK  194  A    between atoms: _462  and  _464
REMARK  195  A    between atoms: _464  and  _465
REMARK  196  A    between atoms: _464  and  _467
REMARK  197  A    between atoms: _467  and  _468
REMARK  198  A    between atoms: _471  and  _473
REMARK  199  A    between atoms: _473  and  _474
REMARK  200  A    between atoms: _473  and  _476
REMARK  201  A    between atoms: _479  and  _481
REMARK  202  A    between atoms: _481  and  _482
REMARK  203  A    between atoms: _481  and  _484
REMARK  204  A    between atoms: _484  and  _485
REMARK  205  A    between atoms: _489  and  _490
REMARK  206  A    between atoms: _495  and  _497
REMARK  207  A    between atoms: _497  and  _498
REMARK  208  A    between atoms: _497  and  _500
REMARK  209  A    between atoms: _500  and  _501
REMARK  210  A    between atoms: _505  and  _506
REMARK  211  A    between atoms: _511  and  _513
REMARK  212  A    between atoms: _513  and  _514
REMARK  213  A    between atoms: _513  and  _516
REMARK  214  A    between atoms: _519  and  _521
REMARK  215  A    between atoms: _521  and  _522
REMARK  216  A    between atoms: _521  and  _524
REMARK  217  A    between atoms: _524  and  _525
REMARK  218  A    between atoms: _530  and  _532
REMARK  219  A    between atoms: _532  and  _533
REMARK  220  A    between atoms: _532  and  _535
REMARK  221  A    between atoms: _535  and  _536
REMARK  222  A    between atoms: _539  and  _541
REMARK  223  A    between atoms: _541  and  _542
REMARK  224  A    between atoms: _541  and  _544
REMARK  225  A    between atoms: _544  and  _545
REMARK  226  A    between atoms: _548  and  _550
REMARK  227  A    between atoms: _550  and  _551
REMARK  228  A    between atoms: _553  and  _555
REMARK  229  A    between atoms: _555  and  _556
REMARK  230  A    between atoms: _555  and  _558
REMARK  231  A    between atoms: _558  and  _559
REMARK  232  A    between atoms: _559  and  _560
REMARK  233  A    between atoms: _560  and  _561
REMARK                            x       y       z     vdW  Elec       q    Type
REMARK                         _______ _______ _______ _____ _____    ______ ____
ROOT
ATOM      1  O   HOH     1      12.159  16.030  13.539  0.00  0.00    +0.000 OA
ENDROOT
TORSDOF 0
REMARK  Name = ../refined-set-2016/1ec1/1ec1_pocket.pdb
REMARK  233 active torsions:
REMARK  status: ('A' for Active; 'I' for Inactive)
REMARK    1  A    between atoms: _1  and  _3
REMARK    2  A    between atoms: _3  and  _4
REMARK    3  A    between atoms: _3  and  _6
REMARK    4  A    between atoms: _6  and  _7
REMARK    5  A    between atoms: _7  and  _8
REMARK    6  A    between atoms: _8  and  _9
REMARK    7  A    between atoms: _18  and  _20
REMARK    8  A    between atoms: _20  and  _21
REMARK    9  A    between atoms: _20  and  _23
REMARK   10  A    between atoms: _23  and  _24
REMARK   11  A    between atoms: _27  and  _29
REMARK   12  A    between atoms: _29  and  _30
REMARK   13  A    between atoms: _29  and  _32
REMARK   14  A    between atoms: _32  and  _33
REMARK   15  A    between atoms: _36  and  _38
REMARK   16  A    between atoms: _38  and  _39
REMARK   17  A    between atoms: _38  and  _41
REMARK   18  A    between atoms: _41  and  _42
REMARK   19  A    between atoms: _45  and  _47
REMARK   20  A    between atoms: _47  and  _48
REMARK   21  A    between atoms: _47  and  _50
REMARK   22  A    between atoms: _50  and  _51
REMARK   23  A    between atoms: _54  and  _56
REMARK   24  A    between atoms: _56  and  _57
REMARK   25  A    between atoms: _56  and  _59
REMARK   26  A    between atoms: _59  and  _60
REMARK   27  A    between atoms: _63  and  _65
REMARK   28  A    between atoms: _65  and  _66
REMARK   29  A    between atoms: _68  and  _70
REMARK   30  A    between atoms: _70  and  _71
REMARK   31  A    between atoms: _74  and  _76
REMARK   32  A    between atoms: _76  and  _77
REMARK   33  A    between atoms: _76  and  _79
REMARK   34  A    between atoms: _79  and  _80
REMARK   35  A    between atoms: _83  and  _85
REMARK   36  A    between atoms: _85  and  _86
REMARK   37  A    between atoms: _85  and  _88
REMARK   38  A    between atoms: _88  and  _89
REMARK   39  A    between atoms: _92  and  _94
REMARK   40  A    between atoms: _94  and  _95
REMARK   41  A    between atoms: _94  and  _97
REMARK   42  A    between atoms: _97  and  _98
REMARK   43  A    between atoms: _101  and  _103
REMARK   44  A    between atoms: _103  and  _104
REMARK   45  A    between atoms: _103  and  _106
REMARK   46  A    between atoms: _109  and  _111
REMARK   47  A    between atoms: _111  and  _112
REMARK   48  A    between atoms: _111  and  _114
REMARK   49  A    between atoms: _114  and  _115
REMARK   50  A    between atoms: _115  and  _116
REMARK   51  A    between atoms: _116  and  _117
REMARK   52  A    between atoms: _117  and  _118
REMARK   53  A    between atoms: _122  and  _124
REMARK   54  A    between atoms: _124  and  _125
REMARK   55  A    between atoms: _124  and  _127
REMARK   56  A    between atoms: _127  and  _128
REMARK   57  A    between atoms: _128  and  _129
REMARK   58  A    between atoms: _131  and  _133
REMARK   59  A    between atoms: _133  and  _134
REMARK   60  A    between atoms: _133  and  _136
REMARK   61  A    between atoms: _136  and  _137
REMARK   62  A    between atoms: _140  and  _142
REMARK   63  A    between atoms: _142  and  _143
REMARK   64  A    between atoms: _145  and  _147
REMARK   65  A    between atoms: _147  and  _148
REMARK   66  A    between atoms: _150  and  _152
REMARK   67  A    between atoms: _152  and  _153
REMARK   68  A    between atoms: _152  and  _155
REMARK   69  A    between atoms: _155  and  _156
REMARK   70  A    between atoms: _159  and  _161
REMARK   71  A    between atoms: _161  and  _162
REMARK   72  A    between atoms: _164  and  _166
REMARK   73  A    between atoms: _166  and  _167
REMARK   74  A    between atoms: _169  and  _171
REMARK   75  A    between atoms: _171  and  _172
REMARK   76  A    between atoms: _171  and  _174
REMARK   77  A    between atoms: _174  and  _175
REMARK   78  A    between atoms: _181  and  _183
REMARK   79  A    between atoms: _183  and  _184
REMARK   80  A    between atoms: _183  and  _186
REMARK   81  A    between atoms: _186  and  _187
REMARK   82  A    between atoms: _190  and  _192
REMARK   83  A    between atoms: _192  and  _193
REMARK   84  A    between atoms: _192  and  _195
REMARK   85  A    between atoms: _198  and  _200
REMARK   86  A    between atoms: _200  and  _201
REMARK   87  A    between atoms: _200  and  _203
REMARK   88  A    between atoms: _203  and  _204
REMARK   89  A    between atoms: _207  and  _209
REMARK   90  A    between atoms: _209  and  _210
REMARK   91  A    between atoms: _209  and  _212
REMARK   92  A    between atoms: _212  and  _213
REMARK   93  A    between atoms: _217  and  _218
REMARK   94  A    between atoms: _223  and  _225
REMARK   95  A    between atoms: _225  and  _226
REMARK   96  A    between atoms: _225  and  _228
REMARK   97  A    between atoms: _231  and  _233
REMARK   98  A    between atoms: _233  and  _234
REMARK   99  A    between atoms: _233  and  _236
REMARK  100  A    between atoms: _236  and  _237
REMARK  101  A    between atoms: _242  and  _244
REMARK  102  A    between atoms: _244  and  _245
REMARK  103  A    between atoms: _244  and  _247
REMARK  104  A    between atoms: _247  and  _248
REMARK  105  A    between atoms: _251  and  _253
REMARK  106  A    between atoms: _253  and  _254
REMARK  107  A    between atoms: _253  and  _256
REMARK  108  A    between atoms: _256  and  _257
REMARK  109  A    between atoms: _260  and  _262
REMARK  110  A    between atoms: _262  and  _263
REMARK  111  A    between atoms: _265  and  _267
REMARK  112  A    between atoms: _267  and  _268
REMARK  113  A    between atoms: _267  and  _270
REMARK  114  A    between atoms: _270  and  _271
REMARK  115  A    between atoms: _271  and  _272
REMARK  116  A    between atoms: _272  and  _273
REMARK  117  A    between atoms: _282  and  _284
REMARK  118  A    between atoms: _284  and  _285
REMARK  119  A    between atoms: _284  and  _287
REMARK  120  A    between atoms: _287  and  _288
REMARK  121  A    between atoms: _288  and  _289
REMARK  122  A    between atoms: _289  and  _290
REMARK  123  A    between atoms: _299  and  _301
REMARK  124  A    between atoms: _301  and  _302
REMARK  125  A    between atoms: _301  and  _304
REMARK  126  A    between atoms: _304  and  _305
REMARK  127  A    between atoms: _308  and  _310
REMARK  128  A    between atoms: _310  and  _311
REMARK  129  A    between atoms: _310  and  _313
REMARK  130  A    between atoms: _313  and  _314
REMARK  131  A    between atoms: _317  and  _319
REMARK  132  A    between atoms: _319  and  _320
REMARK  133  A    between atoms: _319  and  _322
REMARK  134  A    between atoms: _322  and  _323
REMARK  135  A    between atoms: _326  and  _328
REMARK  136  A    between atoms: _328  and  _329
REMARK  137  A    between atoms: _328  and  _331
REMARK  138  A    between atoms: _331  and  _332
REMARK  139  A    between atoms: _335  and  _337
REMARK  140  A    between atoms: _337  and  _338
REMARK  141  A    between atoms: _337  and  _340
REMARK  142  A    between atoms: _340  and  _341
REMARK  143  A    between atoms: _344  and  _346
REMARK  144  A    between atoms: _346  and  _347
REMARK  145  A    between atoms: _349  and  _351
REMARK  146  A    between atoms: _351  and  _352
REMARK  147  A    between atoms: _355  and  _357
REMARK  148  A    between atoms: _357  and  _358
REMARK  149  A    between atoms: _357  and  _360
REMARK  150  A    between atoms: _360  and  _361
REMARK  151  A    between atoms: _364  and  _366
REMARK  152  A    between atoms: _366  and  _367
REMARK  153  A    between atoms: _366  and  _369
REMARK  154  A    between atoms: _369  and  _370
REMARK  155  A    between atoms: _373  and  _375
REMARK  156  A    between atoms: _375  and  _376
REMARK  157  A    between atoms: _375  and  _378
REMARK  158  A    between atoms: _378  and  _379
REMARK  159  A    between atoms: _382  and  _384
REMARK  160  A    between atoms: _384  and  _385
REMARK  161  A    between atoms: _384  and  _387
REMARK  162  A    between atoms: _390  and  _392
REMARK  163  A    between atoms: _392  and  _393
REMARK  164  A    between atoms: _392  and  _395
REMARK  165  A    between atoms: _395  and  _396
REMARK  166  A    between atoms: _396  and  _397
REMARK  167  A    between atoms: _397  and  _398
REMARK  168  A    between atoms: _398  and  _399
REMARK  169  A    between atoms: _403  and  _405
REMARK  170  A    between atoms: _405  and  _406
REMARK  171  A    between atoms: _405  and  _408
REMARK  172  A    between atoms: _408  and  _409
REMARK  173  A    between atoms: _409  and  _410
REMARK  174  A    between atoms: _412  and  _414
REMARK  175  A    between atoms: _414  and  _415
REMARK  176  A    between atoms: _414  and  _417
REMARK  177  A    between atoms: _417  and  _418
REMARK  178  A    between atoms: _421  and  _423
REMARK  179  A    between atoms: _423  and  _424
REMARK  180  A    between atoms: _426  and  _428
REMARK  181  A    between atoms: _428  and  _429
REMARK  182  A    between atoms: _431  and  _433
REMARK  183  A    between atoms: _433  and  _434
REMARK  184  A    between atoms: _433  and  _436
REMARK  185  A    between atoms: _436  and  _437
REMARK  186  A    between atoms: _440  and  _442
REMARK  187  A    between atoms: _442  and  _443
REMARK  188  A    between atoms: _445  and  _447
REMARK  189  A    between atoms: _447  and  _448
REMARK  190  A    between atoms: _450  and  _452
REMARK  191  A    between atoms: _452  and  _453
REMARK  192  A    between atoms: _452  and  _455
REMARK  193  A    between atoms: _455  and  _456
REMARK  194  A    between atoms: _462  and  _464
REMARK  195  A    between atoms: _464  and  _465
REMARK  196  A    between atoms: _464  and  _467
REMARK  197  A    between atoms: _467  and  _468
REMARK  198  A    between atoms: _471  and  _473
REMARK  199  A    between atoms: _473  and  _474
REMARK  200  A    between atoms: _473  and  _476
REMARK  201  A    between atoms: _479  and  _481
REMARK  202  A    between atoms: _481  and  _482
REMARK  203  A    between atoms: _481  and  _484
REMARK  204  A    between atoms: _484  and  _485
REMARK  205  A    between atoms: _489  and  _490
REMARK  206  A    between atoms: _495  and  _497
REMARK  207  A    between atoms: _497  and  _498
REMARK  208  A    between atoms: _497  and  _500
REMARK  209  A    between atoms: _500  and  _501
REMARK  210  A    between atoms: _505  and  _506
REMARK  211  A    between atoms: _511  and  _513
REMARK  212  A    between atoms: _513  and  _514
REMARK  213  A    between atoms: _513  and  _516
REMARK  214  A    between atoms: _519  and  _521
REMARK  215  A    between atoms: _521  and  _522
REMARK  216  A    between atoms: _521  and  _524
REMARK  217  A    between atoms: _524  and  _525
REMARK  218  A    between atoms: _530  and  _532
REMARK  219  A    between atoms: _532  and  _533
REMARK  220  A    between atoms: _532  and  _535
REMARK  221  A    between atoms: _535  and  _536
REMARK  222  A    between atoms: _539  and  _541
REMARK  223  A    between atoms: _541  and  _542
REMARK  224  A    between atoms: _541  and  _544
REMARK  225  A    between atoms: _544  and  _545
REMARK  226  A    between atoms: _548  and  _550
REMARK  227  A    between atoms: _550  and  _551
REMARK  228  A    between atoms: _553  and  _555
REMARK  229  A    between atoms: _555  and  _556
REMARK  230  A    between atoms: _555  and  _558
REMARK  231  A    between atoms: _558  and  _559
REMARK  232  A    between atoms: _559  and  _560
REMARK  233  A    between atoms: _560  and  _561
REMARK                            x       y       z     vdW  Elec       q    Type
REMARK                         _______ _______ _______ _____ _____    ______ ____
ROOT
ATOM      1  O   HOH     1       2.447  28.612   1.457  0.00  0.00    +0.000 OA
ENDROOT
TORSDOF 0
REMARK  Name = ../refined-set-2016/1ec1/1ec1_pocket.pdb
REMARK  233 active torsions:
REMARK  status: ('A' for Active; 'I' for Inactive)
REMARK    1  A    between atoms: _1  and  _3
REMARK    2  A    between atoms: _3  and  _4
REMARK    3  A    between atoms: _3  and  _6
REMARK    4  A    between atoms: _6  and  _7
REMARK    5  A    between atoms: _7  and  _8
REMARK    6  A    between atoms: _8  and  _9
REMARK    7  A    between atoms: _18  and  _20
REMARK    8  A    between atoms: _20  and  _21
REMARK    9  A    between atoms: _20  and  _23
REMARK   10  A    between atoms: _23  and  _24
REMARK   11  A    between atoms: _27  and  _29
REMARK   12  A    between atoms: _29  and  _30
REMARK   13  A    between atoms: _29  and  _32
REMARK   14  A    between atoms: _32  and  _33
REMARK   15  A    between atoms: _36  and  _38
REMARK   16  A    between atoms: _38  and  _39
REMARK   17  A    between atoms: _38  and  _41
REMARK   18  A    between atoms: _41  and  _42
REMARK   19  A    between atoms: _45  and  _47
REMARK   20  A    between atoms: _47  and  _48
REMARK   21  A    between atoms: _47  and  _50
REMARK   22  A    between atoms: _50  and  _51
REMARK   23  A    between atoms: _54  and  _56
REMARK   24  A    between atoms: _56  and  _57
REMARK   25  A    between atoms: _56  and  _59
REMARK   26  A    between atoms: _59  and  _60
REMARK   27  A    between atoms: _63  and  _65
REMARK   28  A    between atoms: _65  and  _66
REMARK   29  A    between atoms: _68  and  _70
REMARK   30  A    between atoms: _70  and  _71
REMARK   31  A    between atoms: _74  and  _76
REMARK   32  A    between atoms: _76  and  _77
REMARK   33  A    between atoms: _76  and  _79
REMARK   34  A    between atoms: _79  and  _80
REMARK   35  A    between atoms: _83  and  _85
REMARK   36  A    between atoms: _85  and  _86
REMARK   37  A    between atoms: _85  and  _88
REMARK   38  A    between atoms: _88  and  _89
REMARK   39  A    between atoms: _92  and  _94
REMARK   40  A    between atoms: _94  and  _95
REMARK   41  A    between atoms: _94  and  _97
REMARK   42  A    between atoms: _97  and  _98
REMARK   43  A    between atoms: _101  and  _103
REMARK   44  A    between atoms: _103  and  _104
REMARK   45  A    between atoms: _103  and  _106
REMARK   46  A    between atoms: _109  and  _111
REMARK   47  A    between atoms: _111  and  _112
REMARK   48  A    between atoms: _111  and  _114
REMARK   49  A    between atoms: _114  and  _115
REMARK   50  A    between atoms: _115  and  _116
REMARK   51  A    between atoms: _116  and  _117
REMARK   52  A    between atoms: _117  and  _118
REMARK   53  A    between atoms: _122  and  _124
REMARK   54  A    between atoms: _124  and  _125
REMARK   55  A    between atoms: _124  and  _127
REMARK   56  A    between atoms: _127  and  _128
REMARK   57  A    between atoms: _128  and  _129
REMARK   58  A    between atoms: _131  and  _133
REMARK   59  A    between atoms: _133  and  _134
REMARK   60  A    between atoms: _133  and  _136
REMARK   61  A    between atoms: _136  and  _137
REMARK   62  A    between atoms: _140  and  _142
REMARK   63  A    between atoms: _142  and  _143
REMARK   64  A    between atoms: _145  and  _147
REMARK   65  A    between atoms: _147  and  _148
REMARK   66  A    between atoms: _150  and  _152
REMARK   67  A    between atoms: _152  and  _153
REMARK   68  A    between atoms: _152  and  _155
REMARK   69  A    between atoms: _155  and  _156
REMARK   70  A    between atoms: _159  and  _161
REMARK   71  A    between atoms: _161  and  _162
REMARK   72  A    between atoms: _164  and  _166
REMARK   73  A    between atoms: _166  and  _167
REMARK   74  A    between atoms: _169  and  _171
REMARK   75  A    between atoms: _171  and  _172
REMARK   76  A    between atoms: _171  and  _174
REMARK   77  A    between atoms: _174  and  _175
REMARK   78  A    between atoms: _181  and  _183
REMARK   79  A    between atoms: _183  and  _184
REMARK   80  A    between atoms: _183  and  _186
REMARK   81  A    between atoms: _186  and  _187
REMARK   82  A    between atoms: _190  and  _192
REMARK   83  A    between atoms: _192  and  _193
REMARK   84  A    between atoms: _192  and  _195
REMARK   85  A    between atoms: _198  and  _200
REMARK   86  A    between atoms: _200  and  _201
REMARK   87  A    between atoms: _200  and  _203
REMARK   88  A    between atoms: _203  and  _204
REMARK   89  A    between atoms: _207  and  _209
REMARK   90  A    between atoms: _209  and  _210
REMARK   91  A    between atoms: _209  and  _212
REMARK   92  A    between atoms: _212  and  _213
REMARK   93  A    between atoms: _217  and  _218
REMARK   94  A    between atoms: _223  and  _225
REMARK   95  A    between atoms: _225  and  _226
REMARK   96  A    between atoms: _225  and  _228
REMARK   97  A    between atoms: _231  and  _233
REMARK   98  A    between atoms: _233  and  _234
REMARK   99  A    between atoms: _233  and  _236
REMARK  100  A    between atoms: _236  and  _237
REMARK  101  A    between atoms: _242  and  _244
REMARK  102  A    between atoms: _244  and  _245
REMARK  103  A    between atoms: _244  and  _247
REMARK  104  A    between atoms: _247  and  _248
REMARK  105  A    between atoms: _251  and  _253
REMARK  106  A    between atoms: _253  and  _254
REMARK  107  A    between atoms: _253  and  _256
REMARK  108  A    between atoms: _256  and  _257
REMARK  109  A    between atoms: _260  and  _262
REMARK  110  A    between atoms: _262  and  _263
REMARK  111  A    between atoms: _265  and  _267
REMARK  112  A    between atoms: _267  and  _268
REMARK  113  A    between atoms: _267  and  _270
REMARK  114  A    between atoms: _270  and  _271
REMARK  115  A    between atoms: _271  and  _272
REMARK  116  A    between atoms: _272  and  _273
REMARK  117  A    between atoms: _282  and  _284
REMARK  118  A    between atoms: _284  and  _285
REMARK  119  A    between atoms: _284  and  _287
REMARK  120  A    between atoms: _287  and  _288
REMARK  121  A    between atoms: _288  and  _289
REMARK  122  A    between atoms: _289  and  _290
REMARK  123  A    between atoms: _299  and  _301
REMARK  124  A    between atoms: _301  and  _302
REMARK  125  A    between atoms: _301  and  _304
REMARK  126  A    between atoms: _304  and  _305
REMARK  127  A    between atoms: _308  and  _310
REMARK  128  A    between atoms: _310  and  _311
REMARK  129  A    between atoms: _310  and  _313
REMARK  130  A    between atoms: _313  and  _314
REMARK  131  A    between atoms: _317  and  _319
REMARK  132  A    between atoms: _319  and  _320
REMARK  133  A    between atoms: _319  and  _322
REMARK  134  A    between atoms: _322  and  _323
REMARK  135  A    between atoms: _326  and  _328
REMARK  136  A    between atoms: _328  and  _329
REMARK  137  A    between atoms: _328  and  _331
REMARK  138  A    between atoms: _331  and  _332
REMARK  139  A    between atoms: _335  and  _337
REMARK  140  A    between atoms: _337  and  _338
REMARK  141  A    between atoms: _337  and  _340
REMARK  142  A    between atoms: _340  and  _341
REMARK  143  A    between atoms: _344  and  _346
REMARK  144  A    between atoms: _346  and  _347
REMARK  145  A    between atoms: _349  and  _351
REMARK  146  A    between atoms: _351  and  _352
REMARK  147  A    between atoms: _355  and  _357
REMARK  148  A    between atoms: _357  and  _358
REMARK  149  A    between atoms: _357  and  _360
REMARK  150  A    between atoms: _360  and  _361
REMARK  151  A    between atoms: _364  and  _366
REMARK  152  A    between atoms: _366  and  _367
REMARK  153  A    between atoms: _366  and  _369
REMARK  154  A    between atoms: _369  and  _370
REMARK  155  A    between atoms: _373  and  _375
REMARK  156  A    between atoms: _375  and  _376
REMARK  157  A    between atoms: _375  and  _378
REMARK  158  A    between atoms: _378  and  _379
REMARK  159  A    between atoms: _382  and  _384
REMARK  160  A    between atoms: _384  and  _385
REMARK  161  A    between atoms: _384  and  _387
REMARK  162  A    between atoms: _390  and  _392
REMARK  163  A    between atoms: _392  and  _393
REMARK  164  A    between atoms: _392  and  _395
REMARK  165  A    between atoms: _395  and  _396
REMARK  166  A    between atoms: _396  and  _397
REMARK  167  A    between atoms: _397  and  _398
REMARK  168  A    between atoms: _398  and  _399
REMARK  169  A    between atoms: _403  and  _405
REMARK  170  A    between atoms: _405  and  _406
REMARK  171  A    between atoms: _405  and  _408
REMARK  172  A    between atoms: _408  and  _409
REMARK  173  A    between atoms: _409  and  _410
REMARK  174  A    between atoms: _412  and  _414
REMARK  175  A    between atoms: _414  and  _415
REMARK  176  A    between atoms: _414  and  _417
REMARK  177  A    between atoms: _417  and  _418
REMARK  178  A    between atoms: _421  and  _423
REMARK  179  A    between atoms: _423  and  _424
REMARK  180  A    between atoms: _426  and  _428
REMARK  181  A    between atoms: _428  and  _429
REMARK  182  A    between atoms: _431  and  _433
REMARK  183  A    between atoms: _433  and  _434
REMARK  184  A    between atoms: _433  and  _436
REMARK  185  A    between atoms: _436  and  _437
REMARK  186  A    between atoms: _440  and  _442
REMARK  187  A    between atoms: _442  and  _443
REMARK  188  A    between atoms: _445  and  _447
REMARK  189  A    between atoms: _447  and  _448
REMARK  190  A    between atoms: _450  and  _452
REMARK  191  A    between atoms: _452  and  _453
REMARK  192  A    between atoms: _452  and  _455
REMARK  193  A    between atoms: _455  and  _456
REMARK  194  A    between atoms: _462  and  _464
REMARK  195  A    between atoms: _464  and  _465
REMARK  196  A    between atoms: _464  and  _467
REMARK  197  A    between atoms: _467  and  _468
REMARK  198  A    between atoms: _471  and  _473
REMARK  199  A    between atoms: _473  and  _474
REMARK  200  A    between atoms: _473  and  _476
REMARK  201  A    between atoms: _479  and  _481
REMARK  202  A    between atoms: _481  and  _482
REMARK  203  A    between atoms: _481  and  _484
REMARK  204  A    between atoms: _484  and  _485
REMARK  205  A    between atoms: _489  and  _490
REMARK  206  A    between atoms: _495  and  _497
REMARK  207  A    between atoms: _497  and  _498
REMARK  208  A    between atoms: _497  and  _500
REMARK  209  A    between atoms: _500  and  _501
REMARK  210  A    between atoms: _505  and  _506
REMARK  211  A    between atoms: _511  and  _513
REMARK  212  A    between atoms: _513  and  _514
REMARK  213  A    between atoms: _513  and  _516
REMARK  214  A    between atoms: _519  and  _521
REMARK  215  A    between atoms: _521  and  _522
REMARK  216  A    between atoms: _521  and  _524
REMARK  217  A    between atoms: _524  and  _525
REMARK  218  A    between atoms: _530  and  _532
REMARK  219  A    between atoms: _532  and  _533
REMARK  220  A    between atoms: _532  and  _535
REMARK  221  A    between atoms: _535  and  _536
REMARK  222  A    between atoms: _539  and  _541
REMARK  223  A    between atoms: _541  and  _542
REMARK  224  A    between atoms: _541  and  _544
REMARK  225  A    between atoms: _544  and  _545
REMARK  226  A    between atoms: _548  and  _550
REMARK  227  A    between atoms: _550  and  _551
REMARK  228  A    between atoms: _553  and  _555
REMARK  229  A    between atoms: _555  and  _556
REMARK  230  A    between atoms: _555  and  _558
REMARK  231  A    between atoms: _558  and  _559
REMARK  232  A    between atoms: _559  and  _560
REMARK  233  A    between atoms: _560  and  _561
REMARK                            x       y       z     vdW  Elec       q    Type
REMARK                         _______ _______ _______ _____ _____    ______ ____
ROOT
ATOM      1  O   HOH     1       1.762  26.284   5.380  0.00  0.00    +0.000 OA
ENDROOT
TORSDOF 0
