REMARK  Name = ../refined-set-2016/4i9u/4i9u_pocket.pdb
REMARK  133 active torsions:
REMARK  status: ('A' for Active; 'I' for Inactive)
REMARK    1  A    between atoms: _1  and  _3
REMARK    2  A    between atoms: _3  and  _4
REMARK    3  A    between atoms: _3  and  _6
REMARK    4  A    between atoms: _9  and  _11
REMARK    5  A    between atoms: _11  and  _12
REMARK    6  A    between atoms: _11  and  _14
REMARK    7  A    between atoms: _17  and  _19
REMARK    8  A    between atoms: _19  and  _20
REMARK    9  A    between atoms: _22  and  _24
REMARK   10  A    between atoms: _24  and  _25
REMARK   11  A    between atoms: _24  and  _27
REMARK   12  A    between atoms: _30  and  _32
REMARK   13  A    between atoms: _32  and  _33
REMARK   14  A    between atoms: _35  and  _37
REMARK   15  A    between atoms: _37  and  _38
REMARK   16  A    between atoms: _37  and  _40
REMARK   17  A    between atoms: _40  and  _41
REMARK   18  A    between atoms: _44  and  _46
REMARK   19  A    between atoms: _46  and  _47
REMARK   20  A    between atoms: _46  and  _49
REMARK   21  A    between atoms: _52  and  _54
REMARK   22  A    between atoms: _54  and  _55
REMARK   23  A    between atoms: _54  and  _57
REMARK   24  A    between atoms: _57  and  _58
REMARK   25  A    between atoms: _61  and  _63
REMARK   26  A    between atoms: _63  and  _64
REMARK   27  A    between atoms: _63  and  _66
REMARK   28  A    between atoms: _69  and  _71
REMARK   29  A    between atoms: _71  and  _72
REMARK   30  A    between atoms: _71  and  _74
REMARK   31  A    between atoms: _74  and  _75
REMARK   32  A    between atoms: _75  and  _76
REMARK   33  A    between atoms: _78  and  _80
REMARK   34  A    between atoms: _80  and  _81
REMARK   35  A    between atoms: _80  and  _83
REMARK   36  A    between atoms: _83  and  _84
REMARK   37  A    between atoms: _87  and  _89
REMARK   38  A    between atoms: _89  and  _90
REMARK   39  A    between atoms: _89  and  _92
REMARK   40  A    between atoms: _92  and  _93
REMARK   41  A    between atoms: _93  and  _94
REMARK   42  A    between atoms: _94  and  _95
REMARK   43  A    between atoms: _95  and  _96
REMARK   44  A    between atoms: _100  and  _102
REMARK   45  A    between atoms: _102  and  _103
REMARK   46  A    between atoms: _102  and  _105
REMARK   47  A    between atoms: _105  and  _106
REMARK   48  A    between atoms: _111  and  _112
REMARK   49  A    between atoms: _114  and  _116
REMARK   50  A    between atoms: _116  and  _117
REMARK   51  A    between atoms: _116  and  _119
REMARK   52  A    between atoms: _119  and  _120
REMARK   53  A    between atoms: _123  and  _125
REMARK   54  A    between atoms: _125  and  _126
REMARK   55  A    between atoms: _125  and  _128
REMARK   56  A    between atoms: _128  and  _129
REMARK   57  A    between atoms: _132  and  _134
REMARK   58  A    between atoms: _134  and  _135
REMARK   59  A    between atoms: _134  and  _137
REMARK   60  A    between atoms: _137  and  _138
REMARK   61  A    between atoms: _141  and  _143
REMARK   62  A    between atoms: _143  and  _144
REMARK   63  A    between atoms: _147  and  _149
REMARK   64  A    between atoms: _149  and  _150
REMARK   65  A    between atoms: _152  and  _154
REMARK   66  A    between atoms: _154  and  _155
REMARK   67  A    between atoms: _158  and  _160
REMARK   68  A    between atoms: _160  and  _161
REMARK   69  A    between atoms: _160  and  _163
REMARK   70  A    between atoms: _163  and  _164
REMARK   71  A    between atoms: _164  and  _165
REMARK   72  A    between atoms: _165  and  _166
REMARK   73  A    between atoms: _175  and  _177
REMARK   74  A    between atoms: _177  and  _178
REMARK   75  A    between atoms: _177  and  _180
REMARK   76  A    between atoms: _180  and  _181
REMARK   77  A    between atoms: _184  and  _186
REMARK   78  A    between atoms: _186  and  _187
REMARK   79  A    between atoms: _186  and  _189
REMARK   80  A    between atoms: _189  and  _190
REMARK   81  A    between atoms: _190  and  _191
REMARK   82  A    between atoms: _196  and  _198
REMARK   83  A    between atoms: _198  and  _199
REMARK   84  A    between atoms: _198  and  _201
REMARK   85  A    between atoms: _201  and  _202
REMARK   86  A    between atoms: _202  and  _203
REMARK   87  A    between atoms: _203  and  _204
REMARK   88  A    between atoms: _213  and  _215
REMARK   89  A    between atoms: _215  and  _216
REMARK   90  A    between atoms: _215  and  _218
REMARK   91  A    between atoms: _218  and  _219
REMARK   92  A    between atoms: _224  and  _226
REMARK   93  A    between atoms: _226  and  _227
REMARK   94  A    between atoms: _226  and  _229
REMARK   95  A    between atoms: _232  and  _234
REMARK   96  A    between atoms: _234  and  _235
REMARK   97  A    between atoms: _234  and  _237
REMARK   98  A    between atoms: _237  and  _238
REMARK   99  A    between atoms: _243  and  _245
REMARK  100  A    between atoms: _245  and  _246
REMARK  101  A    between atoms: _245  and  _248
REMARK  102  A    between atoms: _248  and  _249
REMARK  103  A    between atoms: _252  and  _254
REMARK  104  A    between atoms: _254  and  _255
REMARK  105  A    between atoms: _254  and  _257
REMARK  106  A    between atoms: _257  and  _258
REMARK  107  A    between atoms: _264  and  _266
REMARK  108  A    between atoms: _266  and  _267
REMARK  109  A    between atoms: _266  and  _269
REMARK  110  A    between atoms: _269  and  _270
REMARK  111  A    between atoms: _270  and  _271
REMARK  112  A    between atoms: _271  and  _272
REMARK  113  A    between atoms: _272  and  _273
REMARK  114  A    between atoms: _277  and  _279
REMARK  115  A    between atoms: _279  and  _280
REMARK  116  A    between atoms: _279  and  _282
REMARK  117  A    between atoms: _282  and  _283
REMARK  118  A    between atoms: _289  and  _291
REMARK  119  A    between atoms: _291  and  _292
REMARK  120  A    between atoms: _291  and  _294
REMARK  121  A    between atoms: _294  and  _295
REMARK  122  A    between atoms: _298  and  _300
REMARK  123  A    between atoms: _300  and  _301
REMARK  124  A    between atoms: _300  and  _303
REMARK  125  A    between atoms: _303  and  _304
REMARK  126  A    between atoms: _307  and  _309
REMARK  127  A    between atoms: _309  and  _310
REMARK  128  A    between atoms: _309  and  _312
REMARK  129  A    between atoms: _312  and  _313
REMARK  130  A    between atoms: _318  and  _320
REMARK  131  A    between atoms: _320  and  _321
REMARK  132  A    between atoms: _320  and  _323
REMARK  133  A    between atoms: _323  and  _324
REMARK                            x       y       z     vdW  Elec       q    Type
REMARK                         _______ _______ _______ _____ _____    ______ ____
ROOT
ATOM      1  C   VAL A   2      19.044   9.706  35.273  0.00  0.00    +0.241 C 
ATOM      2  O   VAL A   2      18.142   9.574  36.104  0.00  0.00    -0.273 OA
ATOM      3  N   GLY A   3      19.275  10.848  34.628  0.00  0.00    -0.295 N 
ATOM      4  H   GLY A   3      20.017  10.885  33.900  0.00  0.00    +0.150 HD
ENDROOT
BRANCH   1   5
ATOM      5  CA  VAL A   2      19.971   8.536  34.949  0.00  0.00    +0.148 C 
BRANCH   5   7
ATOM      6  C   VAL A   1      21.902   8.689  36.431  0.00  0.00    +0.238 C 
ATOM      7  N   VAL A   2      20.714   8.164  36.150  0.00  0.00    -0.297 N 
ATOM      8  H   VAL A   2      20.302   7.468  36.804  0.00  0.00    +0.150 HD
ATOM      9  O   VAL A   1      22.469   9.499  35.702  0.00  0.00    -0.274 OA
BRANCH   6  10
ATOM     10  CA  VAL A   1      22.566   8.233  37.715  0.00  0.00    +0.145 C 
BRANCH  10  11
ATOM     11  CB  VAL A   1      22.858   9.466  38.589  0.00  0.00    +0.025 C 
ATOM     12  CG2 VAL A   1      23.413   9.024  39.937  0.00  0.00    +0.002 C 
ATOM     13  CG1 VAL A   1      21.590  10.293  38.765  0.00  0.00    +0.002 C 
ENDBRANCH  10  11
BRANCH  10  14
ATOM     14  N   VAL A   1      23.789   7.554  37.349  0.00  0.00    -0.238 NA
ATOM     15  H   VAL A   1      24.568   8.104  36.934  0.00  0.00    +0.142 HD
ENDBRANCH  10  14
ENDBRANCH   6  10
ENDBRANCH   5   7
BRANCH   5  16
ATOM     16  CB  VAL A   2      19.120   7.333  34.426  0.00  0.00    +0.027 C 
ATOM     17  CG2 VAL A   2      20.025   6.177  34.044  0.00  0.00    +0.002 C 
ATOM     18  CG1 VAL A   2      18.275   7.754  33.240  0.00  0.00    +0.002 C 
ENDBRANCH   5  16
ENDBRANCH   1   5
BRANCH   3  19
ATOM     19  CA  GLY A   3      18.500  12.048  34.929  0.00  0.00    +0.176 C 
BRANCH  19  20
ATOM     20  C   GLY A   3      19.253  13.063  35.777  0.00  0.00    +0.243 C 
ATOM     21  O   GLY A   3      19.730  12.741  36.870  0.00  0.00    -0.273 OA
ATOM     22  N   VAL A   4      19.364  14.294  35.286  0.00  0.00    -0.297 N 
ATOM     23  H   VAL A   4      18.911  14.525  34.379  0.00  0.00    +0.150 HD
BRANCH  22  24
ATOM     24  CA  VAL A   4      20.110  15.324  35.997  0.00  0.00    +0.149 C 
BRANCH  24  25
ATOM     25  C   VAL A   4      19.249  16.509  36.417  0.00  0.00    +0.241 C 
ATOM     26  N   GLY A   5      18.032  16.209  36.856  0.00  0.00    -0.296 N 
ATOM     27  H   GLY A   5      17.658  15.248  36.719  0.00  0.00    +0.150 HD
ATOM     28  O   VAL A   4      19.668  17.661  36.346  0.00  0.00    -0.273 OA
BRANCH  26  29
ATOM     29  CA  GLY A   5      17.219  17.206  37.524  0.00  0.00    +0.163 C 
BRANCH  29  30
ATOM     30  C   GLY A   5      17.649  17.352  38.970  0.00  0.00    +0.229 C 
ATOM     31  O   GLY A   5      18.585  16.688  39.422  0.00  0.00    -0.286 OA
ENDBRANCH  29  30
ENDBRANCH  26  29
ENDBRANCH  24  25
BRANCH  24  32
ATOM     32  CB  VAL A   4      21.294  15.825  35.152  0.00  0.00    +0.027 C 
ATOM     33  CG2 VAL A   4      22.375  14.743  35.087  0.00  0.00    +0.002 C 
ATOM     34  CG1 VAL A   4      20.818  16.184  33.750  0.00  0.00    +0.002 C 
ENDBRANCH  24  32
ENDBRANCH  22  24
ENDBRANCH  19  20
ENDBRANCH   3  19
TORSDOF 13
REMARK  Name = ../refined-set-2016/4i9u/4i9u_pocket.pdb
REMARK  133 active torsions:
REMARK  status: ('A' for Active; 'I' for Inactive)
REMARK    1  A    between atoms: _1  and  _3
REMARK    2  A    between atoms: _3  and  _4
REMARK    3  A    between atoms: _3  and  _6
REMARK    4  A    between atoms: _9  and  _11
REMARK    5  A    between atoms: _11  and  _12
REMARK    6  A    between atoms: _11  and  _14
REMARK    7  A    between atoms: _17  and  _19
REMARK    8  A    between atoms: _19  and  _20
REMARK    9  A    between atoms: _22  and  _24
REMARK   10  A    between atoms: _24  and  _25
REMARK   11  A    between atoms: _24  and  _27
REMARK   12  A    between atoms: _30  and  _32
REMARK   13  A    between atoms: _32  and  _33
REMARK   14  A    between atoms: _35  and  _37
REMARK   15  A    between atoms: _37  and  _38
REMARK   16  A    between atoms: _37  and  _40
REMARK   17  A    between atoms: _40  and  _41
REMARK   18  A    between atoms: _44  and  _46
REMARK   19  A    between atoms: _46  and  _47
REMARK   20  A    between atoms: _46  and  _49
REMARK   21  A    between atoms: _52  and  _54
REMARK   22  A    between atoms: _54  and  _55
REMARK   23  A    between atoms: _54  and  _57
REMARK   24  A    between atoms: _57  and  _58
REMARK   25  A    between atoms: _61  and  _63
REMARK   26  A    between atoms: _63  and  _64
REMARK   27  A    between atoms: _63  and  _66
REMARK   28  A    between atoms: _69  and  _71
REMARK   29  A    between atoms: _71  and  _72
REMARK   30  A    between atoms: _71  and  _74
REMARK   31  A    between atoms: _74  and  _75
REMARK   32  A    between atoms: _75  and  _76
REMARK   33  A    between atoms: _78  and  _80
REMARK   34  A    between atoms: _80  and  _81
REMARK   35  A    between atoms: _80  and  _83
REMARK   36  A    between atoms: _83  and  _84
REMARK   37  A    between atoms: _87  and  _89
REMARK   38  A    between atoms: _89  and  _90
REMARK   39  A    between atoms: _89  and  _92
REMARK   40  A    between atoms: _92  and  _93
REMARK   41  A    between atoms: _93  and  _94
REMARK   42  A    between atoms: _94  and  _95
REMARK   43  A    between atoms: _95  and  _96
REMARK   44  A    between atoms: _100  and  _102
REMARK   45  A    between atoms: _102  and  _103
REMARK   46  A    between atoms: _102  and  _105
REMARK   47  A    between atoms: _105  and  _106
REMARK   48  A    between atoms: _111  and  _112
REMARK   49  A    between atoms: _114  and  _116
REMARK   50  A    between atoms: _116  and  _117
REMARK   51  A    between atoms: _116  and  _119
REMARK   52  A    between atoms: _119  and  _120
REMARK   53  A    between atoms: _123  and  _125
REMARK   54  A    between atoms: _125  and  _126
REMARK   55  A    between atoms: _125  and  _128
REMARK   56  A    between atoms: _128  and  _129
REMARK   57  A    between atoms: _132  and  _134
REMARK   58  A    between atoms: _134  and  _135
REMARK   59  A    between atoms: _134  and  _137
REMARK   60  A    between atoms: _137  and  _138
REMARK   61  A    between atoms: _141  and  _143
REMARK   62  A    between atoms: _143  and  _144
REMARK   63  A    between atoms: _147  and  _149
REMARK   64  A    between atoms: _149  and  _150
REMARK   65  A    between atoms: _152  and  _154
REMARK   66  A    between atoms: _154  and  _155
REMARK   67  A    between atoms: _158  and  _160
REMARK   68  A    between atoms: _160  and  _161
REMARK   69  A    between atoms: _160  and  _163
REMARK   70  A    between atoms: _163  and  _164
REMARK   71  A    between atoms: _164  and  _165
REMARK   72  A    between atoms: _165  and  _166
REMARK   73  A    between atoms: _175  and  _177
REMARK   74  A    between atoms: _177  and  _178
REMARK   75  A    between atoms: _177  and  _180
REMARK   76  A    between atoms: _180  and  _181
REMARK   77  A    between atoms: _184  and  _186
REMARK   78  A    between atoms: _186  and  _187
REMARK   79  A    between atoms: _186  and  _189
REMARK   80  A    between atoms: _189  and  _190
REMARK   81  A    between atoms: _190  and  _191
REMARK   82  A    between atoms: _196  and  _198
REMARK   83  A    between atoms: _198  and  _199
REMARK   84  A    between atoms: _198  and  _201
REMARK   85  A    between atoms: _201  and  _202
REMARK   86  A    between atoms: _202  and  _203
REMARK   87  A    between atoms: _203  and  _204
REMARK   88  A    between atoms: _213  and  _215
REMARK   89  A    between atoms: _215  and  _216
REMARK   90  A    between atoms: _215  and  _218
REMARK   91  A    between atoms: _218  and  _219
REMARK   92  A    between atoms: _224  and  _226
REMARK   93  A    between atoms: _226  and  _227
REMARK   94  A    between atoms: _226  and  _229
REMARK   95  A    between atoms: _232  and  _234
REMARK   96  A    between atoms: _234  and  _235
REMARK   97  A    between atoms: _234  and  _237
REMARK   98  A    between atoms: _237  and  _238
REMARK   99  A    between atoms: _243  and  _245
REMARK  100  A    between atoms: _245  and  _246
REMARK  101  A    between atoms: _245  and  _248
REMARK  102  A    between atoms: _248  and  _249
REMARK  103  A    between atoms: _252  and  _254
REMARK  104  A    between atoms: _254  and  _255
REMARK  105  A    between atoms: _254  and  _257
REMARK  106  A    between atoms: _257  and  _258
REMARK  107  A    between atoms: _264  and  _266
REMARK  108  A    between atoms: _266  and  _267
REMARK  109  A    between atoms: _266  and  _269
REMARK  110  A    between atoms: _269  and  _270
REMARK  111  A    between atoms: _270  and  _271
REMARK  112  A    between atoms: _271  and  _272
REMARK  113  A    between atoms: _272  and  _273
REMARK  114  A    between atoms: _277  and  _279
REMARK  115  A    between atoms: _279  and  _280
REMARK  116  A    between atoms: _279  and  _282
REMARK  117  A    between atoms: _282  and  _283
REMARK  118  A    between atoms: _289  and  _291
REMARK  119  A    between atoms: _291  and  _292
REMARK  120  A    between atoms: _291  and  _294
REMARK  121  A    between atoms: _294  and  _295
REMARK  122  A    between atoms: _298  and  _300
REMARK  123  A    between atoms: _300  and  _301
REMARK  124  A    between atoms: _300  and  _303
REMARK  125  A    between atoms: _303  and  _304
REMARK  126  A    between atoms: _307  and  _309
REMARK  127  A    between atoms: _309  and  _310
REMARK  128  A    between atoms: _309  and  _312
REMARK  129  A    between atoms: _312  and  _313
REMARK  130  A    between atoms: _318  and  _320
REMARK  131  A    between atoms: _320  and  _321
REMARK  132  A    between atoms: _320  and  _323
REMARK  133  A    between atoms: _323  and  _324
REMARK                            x       y       z     vdW  Elec       q    Type
REMARK                         _______ _______ _______ _____ _____    ______ ____
ROOT
ATOM      1  CA  ASP A   3      19.960  12.597  30.329  0.00  0.00    +0.160 C 
ENDROOT
BRANCH   1   2
ATOM      2  C   ASP A   3      19.674  12.850  28.844  0.00  0.00    +0.241 C 
ATOM      3  N   VAL A   4      18.685  13.686  28.546  0.00  0.00    -0.297 N 
ATOM      4  H   VAL A   4      18.109  14.101  29.306  0.00  0.00    +0.150 HD
ATOM      5  O   ASP A   3      20.338  12.275  27.976  0.00  0.00    -0.273 OA
BRANCH   3   6
ATOM      6  CA  VAL A   4      18.407  14.020  27.163  0.00  0.00    +0.149 C 
BRANCH   6   7
ATOM      7  C   VAL A   4      18.628  15.488  26.855  0.00  0.00    +0.241 C 
ATOM      8  N   MET A   5      18.694  16.322  27.888  0.00  0.00    -0.298 N 
ATOM      9  H   MET A   5      18.492  15.976  28.848  0.00  0.00    +0.150 HD
ATOM     10  O   VAL A   4      18.731  15.866  25.685  0.00  0.00    -0.273 OA
BRANCH   8  11
ATOM     11  CA  MET A   5      19.050  17.723  27.679  0.00  0.00    +0.138 C 
BRANCH  11  12
ATOM     12  C   MET A   5      20.566  17.797  27.705  0.00  0.00    +0.227 C 
ATOM     13  O   MET A   5      21.171  17.726  28.777  0.00  0.00    -0.286 OA
ENDBRANCH  11  12
BRANCH  11  14
ATOM     14  CB  MET A   5      18.485  18.603  28.795  0.00  0.00    +0.039 C 
BRANCH  14  15
ATOM     15  CG  MET A   5      17.004  18.437  29.071  0.00  0.00    +0.060 C 
BRANCH  15  16
ATOM     16  SD  MET A   5      16.660  18.610  30.840  0.00  0.00    -0.139 S 
ATOM     17  CE  MET A   5      16.787  20.371  31.066  0.00  0.00    +0.069 C 
ENDBRANCH  15  16
ENDBRANCH  14  15
ENDBRANCH  11  14
ENDBRANCH   8  11
ENDBRANCH   6   7
BRANCH   6  18
ATOM     18  CB  VAL A   4      16.969  13.647  26.766  0.00  0.00    +0.027 C 
ATOM     19  CG2 VAL A   4      15.974  14.355  27.679  0.00  0.00    +0.002 C 
ATOM     20  CG1 VAL A   4      16.795  12.131  26.818  0.00  0.00    +0.002 C 
ENDBRANCH   6  18
ENDBRANCH   3   6
ENDBRANCH   1   2
BRANCH   1  23
ATOM     21  C   VAL A   2      21.528  11.128  31.438  0.00  0.00    +0.241 C 
ATOM     22  O   VAL A   2      20.789  10.986  32.410  0.00  0.00    -0.273 OA
ATOM     23  N   ASP A   3      21.268  11.973  30.452  0.00  0.00    -0.297 N 
ATOM     24  H   ASP A   3      22.009  12.193  29.756  0.00  0.00    +0.150 HD
BRANCH  21  25
ATOM     25  CA  VAL A   2      22.799  10.320  31.311  0.00  0.00    +0.148 C 
BRANCH  25  27
ATOM     26  C   LEU A   1      24.714  10.838  32.742  0.00  0.00    +0.238 C 
ATOM     27  N   VAL A   2      23.517  10.286  32.584  0.00  0.00    -0.297 N 
ATOM     28  H   VAL A   2      23.073   9.812  33.396  0.00  0.00    +0.150 HD
ATOM     29  O   LEU A   1      25.346  11.356  31.824  0.00  0.00    -0.274 OA
BRANCH  26  30
ATOM     30  CA  LEU A   1      25.285  10.811  34.145  0.00  0.00    +0.145 C 
BRANCH  30  31
ATOM     31  N   LEU A   1      26.559  10.111  34.129  0.00  0.00    -0.238 NA
ATOM     32  H   LEU A   1      27.302  10.443  33.482  0.00  0.00    +0.142 HD
ENDBRANCH  30  31
BRANCH  30  33
ATOM     33  CB  LEU A   1      25.477  12.245  34.611  0.00  0.00    +0.026 C 
BRANCH  33  34
ATOM     34  CG  LEU A   1      26.220  12.479  35.919  0.00  0.00    +0.002 C 
ATOM     35  CD2 LEU A   1      25.491  11.789  37.073  0.00  0.00    +0.000 C 
ATOM     36  CD1 LEU A   1      26.326  13.986  36.138  0.00  0.00    +0.000 C 
ENDBRANCH  33  34
ENDBRANCH  30  33
ENDBRANCH  26  30
ENDBRANCH  25  27
BRANCH  25  37
ATOM     37  CB  VAL A   2      22.378   8.923  30.850  0.00  0.00    +0.027 C 
ATOM     38  CG2 VAL A   2      23.597   8.042  30.673  0.00  0.00    +0.002 C 
ATOM     39  CG1 VAL A   2      21.583   9.030  29.558  0.00  0.00    +0.002 C 
ENDBRANCH  25  37
ENDBRANCH  21  25
ENDBRANCH   1  23
BRANCH   1  40
ATOM     40  CB  ASP A   3      19.908  13.905  31.142  0.00  0.00    +0.143 C 
BRANCH  40  41
ATOM     41  CG  ASP A   3      18.481  14.310  31.500  0.00  0.00    +0.367 C 
ATOM     42  OD2 ASP A   3      18.226  14.715  32.659  0.00  0.00    -0.246 OA
ATOM     43  OD1 ASP A   3      17.605  14.216  30.613  0.00  0.00    -0.246 OA
ENDBRANCH  40  41
ENDBRANCH   1  40
TORSDOF 19
REMARK  Name = ../refined-set-2016/4i9u/4i9u_pocket.pdb
REMARK  133 active torsions:
REMARK  status: ('A' for Active; 'I' for Inactive)
REMARK    1  A    between atoms: _1  and  _3
REMARK    2  A    between atoms: _3  and  _4
REMARK    3  A    between atoms: _3  and  _6
REMARK    4  A    between atoms: _9  and  _11
REMARK    5  A    between atoms: _11  and  _12
REMARK    6  A    between atoms: _11  and  _14
REMARK    7  A    between atoms: _17  and  _19
REMARK    8  A    between atoms: _19  and  _20
REMARK    9  A    between atoms: _22  and  _24
REMARK   10  A    between atoms: _24  and  _25
REMARK   11  A    between atoms: _24  and  _27
REMARK   12  A    between atoms: _30  and  _32
REMARK   13  A    between atoms: _32  and  _33
REMARK   14  A    between atoms: _35  and  _37
REMARK   15  A    between atoms: _37  and  _38
REMARK   16  A    between atoms: _37  and  _40
REMARK   17  A    between atoms: _40  and  _41
REMARK   18  A    between atoms: _44  and  _46
REMARK   19  A    between atoms: _46  and  _47
REMARK   20  A    between atoms: _46  and  _49
REMARK   21  A    between atoms: _52  and  _54
REMARK   22  A    between atoms: _54  and  _55
REMARK   23  A    between atoms: _54  and  _57
REMARK   24  A    between atoms: _57  and  _58
REMARK   25  A    between atoms: _61  and  _63
REMARK   26  A    between atoms: _63  and  _64
REMARK   27  A    between atoms: _63  and  _66
REMARK   28  A    between atoms: _69  and  _71
REMARK   29  A    between atoms: _71  and  _72
REMARK   30  A    between atoms: _71  and  _74
REMARK   31  A    between atoms: _74  and  _75
REMARK   32  A    between atoms: _75  and  _76
REMARK   33  A    between atoms: _78  and  _80
REMARK   34  A    between atoms: _80  and  _81
REMARK   35  A    between atoms: _80  and  _83
REMARK   36  A    between atoms: _83  and  _84
REMARK   37  A    between atoms: _87  and  _89
REMARK   38  A    between atoms: _89  and  _90
REMARK   39  A    between atoms: _89  and  _92
REMARK   40  A    between atoms: _92  and  _93
REMARK   41  A    between atoms: _93  and  _94
REMARK   42  A    between atoms: _94  and  _95
REMARK   43  A    between atoms: _95  and  _96
REMARK   44  A    between atoms: _100  and  _102
REMARK   45  A    between atoms: _102  and  _103
REMARK   46  A    between atoms: _102  and  _105
REMARK   47  A    between atoms: _105  and  _106
REMARK   48  A    between atoms: _111  and  _112
REMARK   49  A    between atoms: _114  and  _116
REMARK   50  A    between atoms: _116  and  _117
REMARK   51  A    between atoms: _116  and  _119
REMARK   52  A    between atoms: _119  and  _120
REMARK   53  A    between atoms: _123  and  _125
REMARK   54  A    between atoms: _125  and  _126
REMARK   55  A    between atoms: _125  and  _128
REMARK   56  A    between atoms: _128  and  _129
REMARK   57  A    between atoms: _132  and  _134
REMARK   58  A    between atoms: _134  and  _135
REMARK   59  A    between atoms: _134  and  _137
REMARK   60  A    between atoms: _137  and  _138
REMARK   61  A    between atoms: _141  and  _143
REMARK   62  A    between atoms: _143  and  _144
REMARK   63  A    between atoms: _147  and  _149
REMARK   64  A    between atoms: _149  and  _150
REMARK   65  A    between atoms: _152  and  _154
REMARK   66  A    between atoms: _154  and  _155
REMARK   67  A    between atoms: _158  and  _160
REMARK   68  A    between atoms: _160  and  _161
REMARK   69  A    between atoms: _160  and  _163
REMARK   70  A    between atoms: _163  and  _164
REMARK   71  A    between atoms: _164  and  _165
REMARK   72  A    between atoms: _165  and  _166
REMARK   73  A    between atoms: _175  and  _177
REMARK   74  A    between atoms: _177  and  _178
REMARK   75  A    between atoms: _177  and  _180
REMARK   76  A    between atoms: _180  and  _181
REMARK   77  A    between atoms: _184  and  _186
REMARK   78  A    between atoms: _186  and  _187
REMARK   79  A    between atoms: _186  and  _189
REMARK   80  A    between atoms: _189  and  _190
REMARK   81  A    between atoms: _190  and  _191
REMARK   82  A    between atoms: _196  and  _198
REMARK   83  A    between atoms: _198  and  _199
REMARK   84  A    between atoms: _198  and  _201
REMARK   85  A    between atoms: _201  and  _202
REMARK   86  A    between atoms: _202  and  _203
REMARK   87  A    between atoms: _203  and  _204
REMARK   88  A    between atoms: _213  and  _215
REMARK   89  A    between atoms: _215  and  _216
REMARK   90  A    between atoms: _215  and  _218
REMARK   91  A    between atoms: _218  and  _219
REMARK   92  A    between atoms: _224  and  _226
REMARK   93  A    between atoms: _226  and  _227
REMARK   94  A    between atoms: _226  and  _229
REMARK   95  A    between atoms: _232  and  _234
REMARK   96  A    between atoms: _234  and  _235
REMARK   97  A    between atoms: _234  and  _237
REMARK   98  A    between atoms: _237  and  _238
REMARK   99  A    between atoms: _243  and  _245
REMARK  100  A    between atoms: _245  and  _246
REMARK  101  A    between atoms: _245  and  _248
REMARK  102  A    between atoms: _248  and  _249
REMARK  103  A    between atoms: _252  and  _254
REMARK  104  A    between atoms: _254  and  _255
REMARK  105  A    between atoms: _254  and  _257
REMARK  106  A    between atoms: _257  and  _258
REMARK  107  A    between atoms: _264  and  _266
REMARK  108  A    between atoms: _266  and  _267
REMARK  109  A    between atoms: _266  and  _269
REMARK  110  A    between atoms: _269  and  _270
REMARK  111  A    between atoms: _270  and  _271
REMARK  112  A    between atoms: _271  and  _272
REMARK  113  A    between atoms: _272  and  _273
REMARK  114  A    between atoms: _277  and  _279
REMARK  115  A    between atoms: _279  and  _280
REMARK  116  A    between atoms: _279  and  _282
REMARK  117  A    between atoms: _282  and  _283
REMARK  118  A    between atoms: _289  and  _291
REMARK  119  A    between atoms: _291  and  _292
REMARK  120  A    between atoms: _291  and  _294
REMARK  121  A    between atoms: _294  and  _295
REMARK  122  A    between atoms: _298  and  _300
REMARK  123  A    between atoms: _300  and  _301
REMARK  124  A    between atoms: _300  and  _303
REMARK  125  A    between atoms: _303  and  _304
REMARK  126  A    between atoms: _307  and  _309
REMARK  127  A    between atoms: _309  and  _310
REMARK  128  A    between atoms: _309  and  _312
REMARK  129  A    between atoms: _312  and  _313
REMARK  130  A    between atoms: _318  and  _320
REMARK  131  A    between atoms: _320  and  _321
REMARK  132  A    between atoms: _320  and  _323
REMARK  133  A    between atoms: _323  and  _324
REMARK                            x       y       z     vdW  Elec       q    Type
REMARK                         _______ _______ _______ _____ _____    ______ ____
ROOT
ATOM      1  CA  LEU A   1      23.970  17.235  31.139  0.00  0.00    +0.133 C 
ENDROOT
BRANCH   1   2
ATOM      2  N   LEU A   1      23.202  18.433  30.808  0.00  0.00    -0.239 NA
ATOM      3  H   LEU A   1      22.602  18.423  29.959  0.00  0.00    +0.142 HD
ENDBRANCH   1   2
BRANCH   1   4
ATOM      4  C   LEU A   1      25.466  17.541  31.155  0.00  0.00    +0.224 C 
ATOM      5  O   LEU A   1      26.158  17.249  32.125  0.00  0.00    -0.287 OA
ENDBRANCH   1   4
BRANCH   1   6
ATOM      6  CB  LEU A   1      23.677  16.136  30.109  0.00  0.00    +0.025 C 
BRANCH   6   7
ATOM      7  CG  LEU A   1      24.397  14.792  30.226  0.00  0.00    +0.002 C 
ATOM      8  CD2 LEU A   1      24.061  14.148  31.551  0.00  0.00    +0.000 C 
ATOM      9  CD1 LEU A   1      23.973  13.881  29.091  0.00  0.00    +0.000 C 
ENDBRANCH   6   7
ENDBRANCH   1   6
TORSDOF 4
REMARK  Name = ../refined-set-2016/4i9u/4i9u_pocket.pdb
REMARK  133 active torsions:
REMARK  status: ('A' for Active; 'I' for Inactive)
REMARK    1  A    between atoms: _1  and  _3
REMARK    2  A    between atoms: _3  and  _4
REMARK    3  A    between atoms: _3  and  _6
REMARK    4  A    between atoms: _9  and  _11
REMARK    5  A    between atoms: _11  and  _12
REMARK    6  A    between atoms: _11  and  _14
REMARK    7  A    between atoms: _17  and  _19
REMARK    8  A    between atoms: _19  and  _20
REMARK    9  A    between atoms: _22  and  _24
REMARK   10  A    between atoms: _24  and  _25
REMARK   11  A    between atoms: _24  and  _27
REMARK   12  A    between atoms: _30  and  _32
REMARK   13  A    between atoms: _32  and  _33
REMARK   14  A    between atoms: _35  and  _37
REMARK   15  A    between atoms: _37  and  _38
REMARK   16  A    between atoms: _37  and  _40
REMARK   17  A    between atoms: _40  and  _41
REMARK   18  A    between atoms: _44  and  _46
REMARK   19  A    between atoms: _46  and  _47
REMARK   20  A    between atoms: _46  and  _49
REMARK   21  A    between atoms: _52  and  _54
REMARK   22  A    between atoms: _54  and  _55
REMARK   23  A    between atoms: _54  and  _57
REMARK   24  A    between atoms: _57  and  _58
REMARK   25  A    between atoms: _61  and  _63
REMARK   26  A    between atoms: _63  and  _64
REMARK   27  A    between atoms: _63  and  _66
REMARK   28  A    between atoms: _69  and  _71
REMARK   29  A    between atoms: _71  and  _72
REMARK   30  A    between atoms: _71  and  _74
REMARK   31  A    between atoms: _74  and  _75
REMARK   32  A    between atoms: _75  and  _76
REMARK   33  A    between atoms: _78  and  _80
REMARK   34  A    between atoms: _80  and  _81
REMARK   35  A    between atoms: _80  and  _83
REMARK   36  A    between atoms: _83  and  _84
REMARK   37  A    between atoms: _87  and  _89
REMARK   38  A    between atoms: _89  and  _90
REMARK   39  A    between atoms: _89  and  _92
REMARK   40  A    between atoms: _92  and  _93
REMARK   41  A    between atoms: _93  and  _94
REMARK   42  A    between atoms: _94  and  _95
REMARK   43  A    between atoms: _95  and  _96
REMARK   44  A    between atoms: _100  and  _102
REMARK   45  A    between atoms: _102  and  _103
REMARK   46  A    between atoms: _102  and  _105
REMARK   47  A    between atoms: _105  and  _106
REMARK   48  A    between atoms: _111  and  _112
REMARK   49  A    between atoms: _114  and  _116
REMARK   50  A    between atoms: _116  and  _117
REMARK   51  A    between atoms: _116  and  _119
REMARK   52  A    between atoms: _119  and  _120
REMARK   53  A    between atoms: _123  and  _125
REMARK   54  A    between atoms: _125  and  _126
REMARK   55  A    between atoms: _125  and  _128
REMARK   56  A    between atoms: _128  and  _129
REMARK   57  A    between atoms: _132  and  _134
REMARK   58  A    between atoms: _134  and  _135
REMARK   59  A    between atoms: _134  and  _137
REMARK   60  A    between atoms: _137  and  _138
REMARK   61  A    between atoms: _141  and  _143
REMARK   62  A    between atoms: _143  and  _144
REMARK   63  A    between atoms: _147  and  _149
REMARK   64  A    between atoms: _149  and  _150
REMARK   65  A    between atoms: _152  and  _154
REMARK   66  A    between atoms: _154  and  _155
REMARK   67  A    between atoms: _158  and  _160
REMARK   68  A    between atoms: _160  and  _161
REMARK   69  A    between atoms: _160  and  _163
REMARK   70  A    between atoms: _163  and  _164
REMARK   71  A    between atoms: _164  and  _165
REMARK   72  A    between atoms: _165  and  _166
REMARK   73  A    between atoms: _175  and  _177
REMARK   74  A    between atoms: _177  and  _178
REMARK   75  A    between atoms: _177  and  _180
REMARK   76  A    between atoms: _180  and  _181
REMARK   77  A    between atoms: _184  and  _186
REMARK   78  A    between atoms: _186  and  _187
REMARK   79  A    between atoms: _186  and  _189
REMARK   80  A    between atoms: _189  and  _190
REMARK   81  A    between atoms: _190  and  _191
REMARK   82  A    between atoms: _196  and  _198
REMARK   83  A    between atoms: _198  and  _199
REMARK   84  A    between atoms: _198  and  _201
REMARK   85  A    between atoms: _201  and  _202
REMARK   86  A    between atoms: _202  and  _203
REMARK   87  A    between atoms: _203  and  _204
REMARK   88  A    between atoms: _213  and  _215
REMARK   89  A    between atoms: _215  and  _216
REMARK   90  A    between atoms: _215  and  _218
REMARK   91  A    between atoms: _218  and  _219
REMARK   92  A    between atoms: _224  and  _226
REMARK   93  A    between atoms: _226  and  _227
REMARK   94  A    between atoms: _226  and  _229
REMARK   95  A    between atoms: _232  and  _234
REMARK   96  A    between atoms: _234  and  _235
REMARK   97  A    between atoms: _234  and  _237
REMARK   98  A    between atoms: _237  and  _238
REMARK   99  A    between atoms: _243  and  _245
REMARK  100  A    between atoms: _245  and  _246
REMARK  101  A    between atoms: _245  and  _248
REMARK  102  A    between atoms: _248  and  _249
REMARK  103  A    between atoms: _252  and  _254
REMARK  104  A    between atoms: _254  and  _255
REMARK  105  A    between atoms: _254  and  _257
REMARK  106  A    between atoms: _257  and  _258
REMARK  107  A    between atoms: _264  and  _266
REMARK  108  A    between atoms: _266  and  _267
REMARK  109  A    between atoms: _266  and  _269
REMARK  110  A    between atoms: _269  and  _270
REMARK  111  A    between atoms: _270  and  _271
REMARK  112  A    between atoms: _271  and  _272
REMARK  113  A    between atoms: _272  and  _273
REMARK  114  A    between atoms: _277  and  _279
REMARK  115  A    between atoms: _279  and  _280
REMARK  116  A    between atoms: _279  and  _282
REMARK  117  A    between atoms: _282  and  _283
REMARK  118  A    between atoms: _289  and  _291
REMARK  119  A    between atoms: _291  and  _292
REMARK  120  A    between atoms: _291  and  _294
REMARK  121  A    between atoms: _294  and  _295
REMARK  122  A    between atoms: _298  and  _300
REMARK  123  A    between atoms: _300  and  _301
REMARK  124  A    between atoms: _300  and  _303
REMARK  125  A    between atoms: _303  and  _304
REMARK  126  A    between atoms: _307  and  _309
REMARK  127  A    between atoms: _309  and  _310
REMARK  128  A    between atoms: _309  and  _312
REMARK  129  A    between atoms: _312  and  _313
REMARK  130  A    between atoms: _318  and  _320
REMARK  131  A    between atoms: _320  and  _321
REMARK  132  A    between atoms: _320  and  _323
REMARK  133  A    between atoms: _323  and  _324
REMARK                            x       y       z     vdW  Elec       q    Type
REMARK                         _______ _______ _______ _____ _____    ______ ____
ROOT
ATOM      1  CG  LYS A   1      22.999  11.897  23.438  0.00  0.00    -0.000 C 
ENDROOT
BRANCH   1   2
ATOM      2  CB  LYS A   1      22.259  11.953  24.763  0.00  0.00    +0.025 C 
BRANCH   2   3
ATOM      3  CA  LYS A   1      22.908  11.111  25.858  0.00  0.00    +0.133 C 
BRANCH   3   4
ATOM      4  N   LYS A   1      24.220  11.640  26.179  0.00  0.00    -0.239 NA
ATOM      5  H   LYS A   1      24.682  12.294  25.515  0.00  0.00    +0.142 HD
ENDBRANCH   3   4
BRANCH   3   6
ATOM      6  C   LYS A   1      23.005   9.658  25.411  0.00  0.00    +0.224 C 
ATOM      7  O   LYS A   1      22.024   8.929  25.460  0.00  0.00    -0.287 OA
ENDBRANCH   3   6
ENDBRANCH   2   3
ENDBRANCH   1   2
BRANCH   1   8
ATOM      8  CD  LYS A   1      22.242  12.617  22.324  0.00  0.00    -0.024 C 
BRANCH   8   9
ATOM      9  CE  LYS A   1      23.068  12.663  21.047  0.00  0.00    -0.086 C 
BRANCH   9  10
ATOM     10  NZ  LYS A   1      22.445  13.560  20.040  0.00  0.00    +0.380 N 
ATOM     11  HZ1 LYS A   1      22.378  14.522  20.429  0.00  0.00    -0.089 HD
ATOM     12  HZ2 LYS A   1      21.493  13.211  19.809  0.00  0.00    -0.089 HD
ATOM     13  HZ3 LYS A   1      23.029  13.572  19.180  0.00  0.00    -0.089 HD
ENDBRANCH   9  10
ENDBRANCH   8   9
ENDBRANCH   1   8
TORSDOF 7
REMARK  Name = ../refined-set-2016/4i9u/4i9u_pocket.pdb
REMARK  133 active torsions:
REMARK  status: ('A' for Active; 'I' for Inactive)
REMARK    1  A    between atoms: _1  and  _3
REMARK    2  A    between atoms: _3  and  _4
REMARK    3  A    between atoms: _3  and  _6
REMARK    4  A    between atoms: _9  and  _11
REMARK    5  A    between atoms: _11  and  _12
REMARK    6  A    between atoms: _11  and  _14
REMARK    7  A    between atoms: _17  and  _19
REMARK    8  A    between atoms: _19  and  _20
REMARK    9  A    between atoms: _22  and  _24
REMARK   10  A    between atoms: _24  and  _25
REMARK   11  A    between atoms: _24  and  _27
REMARK   12  A    between atoms: _30  and  _32
REMARK   13  A    between atoms: _32  and  _33
REMARK   14  A    between atoms: _35  and  _37
REMARK   15  A    between atoms: _37  and  _38
REMARK   16  A    between atoms: _37  and  _40
REMARK   17  A    between atoms: _40  and  _41
REMARK   18  A    between atoms: _44  and  _46
REMARK   19  A    between atoms: _46  and  _47
REMARK   20  A    between atoms: _46  and  _49
REMARK   21  A    between atoms: _52  and  _54
REMARK   22  A    between atoms: _54  and  _55
REMARK   23  A    between atoms: _54  and  _57
REMARK   24  A    between atoms: _57  and  _58
REMARK   25  A    between atoms: _61  and  _63
REMARK   26  A    between atoms: _63  and  _64
REMARK   27  A    between atoms: _63  and  _66
REMARK   28  A    between atoms: _69  and  _71
REMARK   29  A    between atoms: _71  and  _72
REMARK   30  A    between atoms: _71  and  _74
REMARK   31  A    between atoms: _74  and  _75
REMARK   32  A    between atoms: _75  and  _76
REMARK   33  A    between atoms: _78  and  _80
REMARK   34  A    between atoms: _80  and  _81
REMARK   35  A    between atoms: _80  and  _83
REMARK   36  A    between atoms: _83  and  _84
REMARK   37  A    between atoms: _87  and  _89
REMARK   38  A    between atoms: _89  and  _90
REMARK   39  A    between atoms: _89  and  _92
REMARK   40  A    between atoms: _92  and  _93
REMARK   41  A    between atoms: _93  and  _94
REMARK   42  A    between atoms: _94  and  _95
REMARK   43  A    between atoms: _95  and  _96
REMARK   44  A    between atoms: _100  and  _102
REMARK   45  A    between atoms: _102  and  _103
REMARK   46  A    between atoms: _102  and  _105
REMARK   47  A    between atoms: _105  and  _106
REMARK   48  A    between atoms: _111  and  _112
REMARK   49  A    between atoms: _114  and  _116
REMARK   50  A    between atoms: _116  and  _117
REMARK   51  A    between atoms: _116  and  _119
REMARK   52  A    between atoms: _119  and  _120
REMARK   53  A    between atoms: _123  and  _125
REMARK   54  A    between atoms: _125  and  _126
REMARK   55  A    between atoms: _125  and  _128
REMARK   56  A    between atoms: _128  and  _129
REMARK   57  A    between atoms: _132  and  _134
REMARK   58  A    between atoms: _134  and  _135
REMARK   59  A    between atoms: _134  and  _137
REMARK   60  A    between atoms: _137  and  _138
REMARK   61  A    between atoms: _141  and  _143
REMARK   62  A    between atoms: _143  and  _144
REMARK   63  A    between atoms: _147  and  _149
REMARK   64  A    between atoms: _149  and  _150
REMARK   65  A    between atoms: _152  and  _154
REMARK   66  A    between atoms: _154  and  _155
REMARK   67  A    between atoms: _158  and  _160
REMARK   68  A    between atoms: _160  and  _161
REMARK   69  A    between atoms: _160  and  _163
REMARK   70  A    between atoms: _163  and  _164
REMARK   71  A    between atoms: _164  and  _165
REMARK   72  A    between atoms: _165  and  _166
REMARK   73  A    between atoms: _175  and  _177
REMARK   74  A    between atoms: _177  and  _178
REMARK   75  A    between atoms: _177  and  _180
REMARK   76  A    between atoms: _180  and  _181
REMARK   77  A    between atoms: _184  and  _186
REMARK   78  A    between atoms: _186  and  _187
REMARK   79  A    between atoms: _186  and  _189
REMARK   80  A    between atoms: _189  and  _190
REMARK   81  A    between atoms: _190  and  _191
REMARK   82  A    between atoms: _196  and  _198
REMARK   83  A    between atoms: _198  and  _199
REMARK   84  A    between atoms: _198  and  _201
REMARK   85  A    between atoms: _201  and  _202
REMARK   86  A    between atoms: _202  and  _203
REMARK   87  A    between atoms: _203  and  _204
REMARK   88  A    between atoms: _213  and  _215
REMARK   89  A    between atoms: _215  and  _216
REMARK   90  A    between atoms: _215  and  _218
REMARK   91  A    between atoms: _218  and  _219
REMARK   92  A    between atoms: _224  and  _226
REMARK   93  A    between atoms: _226  and  _227
REMARK   94  A    between atoms: _226  and  _229
REMARK   95  A    between atoms: _232  and  _234
REMARK   96  A    between atoms: _234  and  _235
REMARK   97  A    between atoms: _234  and  _237
REMARK   98  A    between atoms: _237  and  _238
REMARK   99  A    between atoms: _243  and  _245
REMARK  100  A    between atoms: _245  and  _246
REMARK  101  A    between atoms: _245  and  _248
REMARK  102  A    between atoms: _248  and  _249
REMARK  103  A    between atoms: _252  and  _254
REMARK  104  A    between atoms: _254  and  _255
REMARK  105  A    between atoms: _254  and  _257
REMARK  106  A    between atoms: _257  and  _258
REMARK  107  A    between atoms: _264  and  _266
REMARK  108  A    between atoms: _266  and  _267
REMARK  109  A    between atoms: _266  and  _269
REMARK  110  A    between atoms: _269  and  _270
REMARK  111  A    between atoms: _270  and  _271
REMARK  112  A    between atoms: _271  and  _272
REMARK  113  A    between atoms: _272  and  _273
REMARK  114  A    between atoms: _277  and  _279
REMARK  115  A    between atoms: _279  and  _280
REMARK  116  A    between atoms: _279  and  _282
REMARK  117  A    between atoms: _282  and  _283
REMARK  118  A    between atoms: _289  and  _291
REMARK  119  A    between atoms: _291  and  _292
REMARK  120  A    between atoms: _291  and  _294
REMARK  121  A    between atoms: _294  and  _295
REMARK  122  A    between atoms: _298  and  _300
REMARK  123  A    between atoms: _300  and  _301
REMARK  124  A    between atoms: _300  and  _303
REMARK  125  A    between atoms: _303  and  _304
REMARK  126  A    between atoms: _307  and  _309
REMARK  127  A    between atoms: _309  and  _310
REMARK  128  A    between atoms: _309  and  _312
REMARK  129  A    between atoms: _312  and  _313
REMARK  130  A    between atoms: _318  and  _320
REMARK  131  A    between atoms: _320  and  _321
REMARK  132  A    between atoms: _320  and  _323
REMARK  133  A    between atoms: _323  and  _324
REMARK                            x       y       z     vdW  Elec       q    Type
REMARK                         _______ _______ _______ _____ _____    ______ ____
ROOT
ATOM      1  CG  TYR A   1      21.738   4.878  27.799  0.00  0.00    -0.020 A 
ATOM      2  CD2 TYR A   1      21.344   4.689  29.119  0.00  0.00    -0.001 A 
ATOM      3  CE2 TYR A   1      20.296   5.406  29.658  0.00  0.00    +0.036 A 
ATOM      4  CZ  TYR A   1      19.622   6.327  28.877  0.00  0.00    +0.134 A 
ATOM      5  CE1 TYR A   1      19.990   6.528  27.561  0.00  0.00    +0.036 A 
ATOM      6  CD1 TYR A   1      21.041   5.807  27.030  0.00  0.00    -0.001 A 
ENDROOT
BRANCH   4   7
ATOM      7  OH  TYR A   1      18.588   7.062  29.423  0.00  0.00    -0.506 OA
ATOM      8  HH  TYR A   1      18.217   7.669  28.735  0.00  0.00    +0.292 HD
ENDBRANCH   4   7
BRANCH   1   9
ATOM      9  CB  TYR A   1      22.919   4.131  27.226  0.00  0.00    +0.051 C 
BRANCH   9  10
ATOM     10  CA  TYR A   1      24.171   5.007  27.090  0.00  0.00    +0.137 C 
BRANCH  10  11
ATOM     11  N   TYR A   1      24.068   5.843  25.893  0.00  0.00    -0.239 NA
ATOM     12  H   TYR A   1      23.410   5.559  25.139  0.00  0.00    +0.142 HD
ENDBRANCH  10  11
BRANCH  10  13
ATOM     13  C   TYR A   1      25.421   4.130  27.140  0.00  0.00    +0.224 C 
ATOM     14  O   TYR A   1      25.616   3.354  28.081  0.00  0.00    -0.287 OA
ENDBRANCH  10  13
ENDBRANCH   9  10
ENDBRANCH   1   9
TORSDOF 5
REMARK  Name = ../refined-set-2016/4i9u/4i9u_pocket.pdb
REMARK  133 active torsions:
REMARK  status: ('A' for Active; 'I' for Inactive)
REMARK    1  A    between atoms: _1  and  _3
REMARK    2  A    between atoms: _3  and  _4
REMARK    3  A    between atoms: _3  and  _6
REMARK    4  A    between atoms: _9  and  _11
REMARK    5  A    between atoms: _11  and  _12
REMARK    6  A    between atoms: _11  and  _14
REMARK    7  A    between atoms: _17  and  _19
REMARK    8  A    between atoms: _19  and  _20
REMARK    9  A    between atoms: _22  and  _24
REMARK   10  A    between atoms: _24  and  _25
REMARK   11  A    between atoms: _24  and  _27
REMARK   12  A    between atoms: _30  and  _32
REMARK   13  A    between atoms: _32  and  _33
REMARK   14  A    between atoms: _35  and  _37
REMARK   15  A    between atoms: _37  and  _38
REMARK   16  A    between atoms: _37  and  _40
REMARK   17  A    between atoms: _40  and  _41
REMARK   18  A    between atoms: _44  and  _46
REMARK   19  A    between atoms: _46  and  _47
REMARK   20  A    between atoms: _46  and  _49
REMARK   21  A    between atoms: _52  and  _54
REMARK   22  A    between atoms: _54  and  _55
REMARK   23  A    between atoms: _54  and  _57
REMARK   24  A    between atoms: _57  and  _58
REMARK   25  A    between atoms: _61  and  _63
REMARK   26  A    between atoms: _63  and  _64
REMARK   27  A    between atoms: _63  and  _66
REMARK   28  A    between atoms: _69  and  _71
REMARK   29  A    between atoms: _71  and  _72
REMARK   30  A    between atoms: _71  and  _74
REMARK   31  A    between atoms: _74  and  _75
REMARK   32  A    between atoms: _75  and  _76
REMARK   33  A    between atoms: _78  and  _80
REMARK   34  A    between atoms: _80  and  _81
REMARK   35  A    between atoms: _80  and  _83
REMARK   36  A    between atoms: _83  and  _84
REMARK   37  A    between atoms: _87  and  _89
REMARK   38  A    between atoms: _89  and  _90
REMARK   39  A    between atoms: _89  and  _92
REMARK   40  A    between atoms: _92  and  _93
REMARK   41  A    between atoms: _93  and  _94
REMARK   42  A    between atoms: _94  and  _95
REMARK   43  A    between atoms: _95  and  _96
REMARK   44  A    between atoms: _100  and  _102
REMARK   45  A    between atoms: _102  and  _103
REMARK   46  A    between atoms: _102  and  _105
REMARK   47  A    between atoms: _105  and  _106
REMARK   48  A    between atoms: _111  and  _112
REMARK   49  A    between atoms: _114  and  _116
REMARK   50  A    between atoms: _116  and  _117
REMARK   51  A    between atoms: _116  and  _119
REMARK   52  A    between atoms: _119  and  _120
REMARK   53  A    between atoms: _123  and  _125
REMARK   54  A    between atoms: _125  and  _126
REMARK   55  A    between atoms: _125  and  _128
REMARK   56  A    between atoms: _128  and  _129
REMARK   57  A    between atoms: _132  and  _134
REMARK   58  A    between atoms: _134  and  _135
REMARK   59  A    between atoms: _134  and  _137
REMARK   60  A    between atoms: _137  and  _138
REMARK   61  A    between atoms: _141  and  _143
REMARK   62  A    between atoms: _143  and  _144
REMARK   63  A    between atoms: _147  and  _149
REMARK   64  A    between atoms: _149  and  _150
REMARK   65  A    between atoms: _152  and  _154
REMARK   66  A    between atoms: _154  and  _155
REMARK   67  A    between atoms: _158  and  _160
REMARK   68  A    between atoms: _160  and  _161
REMARK   69  A    between atoms: _160  and  _163
REMARK   70  A    between atoms: _163  and  _164
REMARK   71  A    between atoms: _164  and  _165
REMARK   72  A    between atoms: _165  and  _166
REMARK   73  A    between atoms: _175  and  _177
REMARK   74  A    between atoms: _177  and  _178
REMARK   75  A    between atoms: _177  and  _180
REMARK   76  A    between atoms: _180  and  _181
REMARK   77  A    between atoms: _184  and  _186
REMARK   78  A    between atoms: _186  and  _187
REMARK   79  A    between atoms: _186  and  _189
REMARK   80  A    between atoms: _189  and  _190
REMARK   81  A    between atoms: _190  and  _191
REMARK   82  A    between atoms: _196  and  _198
REMARK   83  A    between atoms: _198  and  _199
REMARK   84  A    between atoms: _198  and  _201
REMARK   85  A    between atoms: _201  and  _202
REMARK   86  A    between atoms: _202  and  _203
REMARK   87  A    between atoms: _203  and  _204
REMARK   88  A    between atoms: _213  and  _215
REMARK   89  A    between atoms: _215  and  _216
REMARK   90  A    between atoms: _215  and  _218
REMARK   91  A    between atoms: _218  and  _219
REMARK   92  A    between atoms: _224  and  _226
REMARK   93  A    between atoms: _226  and  _227
REMARK   94  A    between atoms: _226  and  _229
REMARK   95  A    between atoms: _232  and  _234
REMARK   96  A    between atoms: _234  and  _235
REMARK   97  A    between atoms: _234  and  _237
REMARK   98  A    between atoms: _237  and  _238
REMARK   99  A    between atoms: _243  and  _245
REMARK  100  A    between atoms: _245  and  _246
REMARK  101  A    between atoms: _245  and  _248
REMARK  102  A    between atoms: _248  and  _249
REMARK  103  A    between atoms: _252  and  _254
REMARK  104  A    between atoms: _254  and  _255
REMARK  105  A    between atoms: _254  and  _257
REMARK  106  A    between atoms: _257  and  _258
REMARK  107  A    between atoms: _264  and  _266
REMARK  108  A    between atoms: _266  and  _267
REMARK  109  A    between atoms: _266  and  _269
REMARK  110  A    between atoms: _269  and  _270
REMARK  111  A    between atoms: _270  and  _271
REMARK  112  A    between atoms: _271  and  _272
REMARK  113  A    between atoms: _272  and  _273
REMARK  114  A    between atoms: _277  and  _279
REMARK  115  A    between atoms: _279  and  _280
REMARK  116  A    between atoms: _279  and  _282
REMARK  117  A    between atoms: _282  and  _283
REMARK  118  A    between atoms: _289  and  _291
REMARK  119  A    between atoms: _291  and  _292
REMARK  120  A    between atoms: _291  and  _294
REMARK  121  A    between atoms: _294  and  _295
REMARK  122  A    between atoms: _298  and  _300
REMARK  123  A    between atoms: _300  and  _301
REMARK  124  A    between atoms: _300  and  _303
REMARK  125  A    between atoms: _303  and  _304
REMARK  126  A    between atoms: _307  and  _309
REMARK  127  A    between atoms: _309  and  _310
REMARK  128  A    between atoms: _309  and  _312
REMARK  129  A    between atoms: _312  and  _313
REMARK  130  A    between atoms: _318  and  _320
REMARK  131  A    between atoms: _320  and  _321
REMARK  132  A    between atoms: _320  and  _323
REMARK  133  A    between atoms: _323  and  _324
REMARK                            x       y       z     vdW  Elec       q    Type
REMARK                         _______ _______ _______ _____ _____    ______ ____
ROOT
ATOM      1  CA  ALA A   4      14.138  10.215  35.098  0.00  0.00    +0.149 C 
ATOM      2  CB  ALA A   4      14.506   9.441  33.852  0.00  0.00    +0.031 C 
ENDROOT
BRANCH   1   5
ATOM      3  C   THR A   3      14.885  10.268  37.422  0.00  0.00    +0.243 C 
ATOM      4  O   THR A   3      14.339  11.337  37.637  0.00  0.00    -0.273 OA
ATOM      5  N   ALA A   4      14.832   9.651  36.248  0.00  0.00    -0.297 N 
ATOM      6  H   ALA A   4      15.304   8.730  36.145  0.00  0.00    +0.150 HD
BRANCH   3   7
ATOM      7  CA  THR A   3      15.678   9.574  38.516  0.00  0.00    +0.176 C 
BRANCH   7  10
ATOM      8  C   ILE A   2      16.085   7.179  38.378  0.00  0.00    +0.241 C 
ATOM      9  O   ILE A   2      15.219   6.934  39.210  0.00  0.00    -0.273 OA
ATOM     10  N   THR A   3      16.398   8.416  37.998  0.00  0.00    -0.295 N 
ATOM     11  H   THR A   3      17.172   8.560  37.318  0.00  0.00    +0.150 HD
BRANCH   8  12
ATOM     12  CA  ILE A   2      16.862   6.054  37.723  0.00  0.00    +0.148 C 
BRANCH  12  14
ATOM     13  C   ILE A   1      19.056   5.704  38.652  0.00  0.00    +0.238 C 
ATOM     14  N   ILE A   2      17.755   5.432  38.676  0.00  0.00    -0.297 N 
ATOM     15  H   ILE A   2      17.378   4.769  39.383  0.00  0.00    +0.150 HD
ATOM     16  O   ILE A   1      19.548   6.540  37.890  0.00  0.00    -0.274 OA
BRANCH  13  17
ATOM     17  CA  ILE A   1      19.924   4.928  39.632  0.00  0.00    +0.145 C 
BRANCH  17  18
ATOM     18  N   ILE A   1      20.957   4.237  38.888  0.00  0.00    -0.238 NA
ATOM     19  H   ILE A   1      21.759   4.786  38.517  0.00  0.00    +0.142 HD
ENDBRANCH  17  18
BRANCH  17  20
ATOM     20  CB  ILE A   1      20.547   5.912  40.643  0.00  0.00    +0.025 C 
ATOM     21  CG2 ILE A   1      19.483   6.823  41.205  0.00  0.00    +0.002 C 
BRANCH  20  22
ATOM     22  CG1 ILE A   1      21.277   5.141  41.743  0.00  0.00    +0.002 C 
ATOM     23  CD1 ILE A   1      22.354   5.955  42.483  0.00  0.00    +0.000 C 
ENDBRANCH  20  22
ENDBRANCH  17  20
ENDBRANCH  13  17
ENDBRANCH  12  14
BRANCH  12  24
ATOM     24  CB  ILE A   2      15.880   5.026  37.151  0.00  0.00    +0.027 C 
ATOM     25  CG2 ILE A   2      15.211   5.589  35.904  0.00  0.00    +0.002 C 
BRANCH  24  26
ATOM     26  CG1 ILE A   2      16.635   3.755  36.756  0.00  0.00    +0.002 C 
ATOM     27  CD1 ILE A   2      17.556   3.931  35.563  0.00  0.00    +0.000 C 
ENDBRANCH  24  26
ENDBRANCH  12  24
ENDBRANCH   8  12
ENDBRANCH   7  10
BRANCH   7  28
ATOM     28  CB  THR A   3      16.636  10.602  39.137  0.00  0.00    +0.137 C 
ATOM     29  CG2 THR A   3      17.505   9.944  40.200  0.00  0.00    +0.034 C 
BRANCH  28  30
ATOM     30  OG1 THR A   3      17.476  11.147  38.116  0.00  0.00    -0.382 OA
ATOM     31  HG1 THR A   3      17.999  10.418  37.697  0.00  0.00    +0.210 HD
ENDBRANCH  28  30
ENDBRANCH   7  28
ENDBRANCH   3   7
ENDBRANCH   1   5
BRANCH   1  32
ATOM     32  C   ALA A   4      12.621  10.212  35.271  0.00  0.00    +0.241 C 
ATOM     33  O   ALA A   4      12.040   9.285  35.850  0.00  0.00    -0.273 OA
ATOM     34  N   GLY A   5      11.972  11.247  34.757  0.00  0.00    -0.295 N 
ATOM     35  H   GLY A   5      12.492  11.994  34.253  0.00  0.00    +0.150 HD
BRANCH  34  36
ATOM     36  CA  GLY A   5      10.534  11.330  34.902  0.00  0.00    +0.176 C 
BRANCH  36  37
ATOM     37  C   GLY A   5       9.958  12.438  34.047  0.00  0.00    +0.243 C 
ATOM     38  N   ALA A   6       8.638  12.431  33.872  0.00  0.00    -0.297 N 
ATOM     39  H   ALA A   6       8.061  11.725  34.372  0.00  0.00    +0.150 HD
ATOM     40  O   GLY A   5      10.701  13.286  33.563  0.00  0.00    -0.273 OA
BRANCH  38  41
ATOM     41  CA  ALA A   6       7.989  13.391  32.996  0.00  0.00    +0.149 C 
ATOM     42  CB  ALA A   6       7.033  12.671  32.017  0.00  0.00    +0.031 C 
BRANCH  41  43
ATOM     43  C   ALA A   6       7.243  14.457  33.832  0.00  0.00    +0.241 C 
ATOM     44  O   ALA A   6       6.588  14.139  34.840  0.00  0.00    -0.273 OA
ATOM     45  N   ARG A   7       7.390  15.722  33.446  0.00  0.00    -0.298 N 
ATOM     46  H   ARG A   7       8.083  15.931  32.699  0.00  0.00    +0.150 HD
BRANCH  45  47
ATOM     47  CA  ARG A   7       6.622  16.847  34.020  0.00  0.00    +0.137 C 
BRANCH  47  48
ATOM     48  C   ARG A   7       5.145  16.547  34.208  0.00  0.00    +0.227 C 
ATOM     49  O   ARG A   7       4.350  16.896  33.339  0.00  0.00    -0.286 OA
ENDBRANCH  47  48
BRANCH  47  50
ATOM     50  CB  ARG A   7       6.748  18.082  33.077  0.00  0.00    +0.031 C 
BRANCH  50  51
ATOM     51  CG  ARG A   7       6.688  17.576  31.598  0.00  0.00    +0.045 C 
BRANCH  51  52
ATOM     52  CD  ARG A   7       7.053  18.578  30.552  0.00  0.00    +0.174 C 
BRANCH  52  53
ATOM     53  NE  ARG A   7       5.893  18.876  29.698  0.00  0.00    -0.265 N 
ATOM     54  HE  ARG A   7       4.950  18.865  30.137  0.00  0.00    +0.259 HD
ATOM     55  CZ  ARG A   7       5.972  19.160  28.396  0.00  0.00    +0.342 C 
ATOM     56  NH2 ARG A   7       7.177  19.156  27.794  0.00  0.00    -0.292 N 
ATOM     57 HH21 ARG A   7       8.032  18.933  28.343  0.00  0.00    +0.255 HD
ATOM     58 HH22 ARG A   7       7.253  19.376  26.780  0.00  0.00    +0.255 HD
ATOM     59  NH1 ARG A   7       4.853  19.397  27.686  0.00  0.00    -0.292 N 
ATOM     60 HH11 ARG A   7       3.924  19.359  28.152  0.00  0.00    +0.255 HD
ATOM     61 HH12 ARG A   7       4.918  19.618  26.672  0.00  0.00    +0.255 HD
ENDBRANCH  52  53
ENDBRANCH  51  52
ENDBRANCH  50  51
ENDBRANCH  47  50
ENDBRANCH  45  47
ENDBRANCH  41  43
ENDBRANCH  38  41
ENDBRANCH  36  37
ENDBRANCH  34  36
ENDBRANCH   1  32
TORSDOF 24
REMARK  Name = ../refined-set-2016/4i9u/4i9u_pocket.pdb
REMARK  133 active torsions:
REMARK  status: ('A' for Active; 'I' for Inactive)
REMARK    1  A    between atoms: _1  and  _3
REMARK    2  A    between atoms: _3  and  _4
REMARK    3  A    between atoms: _3  and  _6
REMARK    4  A    between atoms: _9  and  _11
REMARK    5  A    between atoms: _11  and  _12
REMARK    6  A    between atoms: _11  and  _14
REMARK    7  A    between atoms: _17  and  _19
REMARK    8  A    between atoms: _19  and  _20
REMARK    9  A    between atoms: _22  and  _24
REMARK   10  A    between atoms: _24  and  _25
REMARK   11  A    between atoms: _24  and  _27
REMARK   12  A    between atoms: _30  and  _32
REMARK   13  A    between atoms: _32  and  _33
REMARK   14  A    between atoms: _35  and  _37
REMARK   15  A    between atoms: _37  and  _38
REMARK   16  A    between atoms: _37  and  _40
REMARK   17  A    between atoms: _40  and  _41
REMARK   18  A    between atoms: _44  and  _46
REMARK   19  A    between atoms: _46  and  _47
REMARK   20  A    between atoms: _46  and  _49
REMARK   21  A    between atoms: _52  and  _54
REMARK   22  A    between atoms: _54  and  _55
REMARK   23  A    between atoms: _54  and  _57
REMARK   24  A    between atoms: _57  and  _58
REMARK   25  A    between atoms: _61  and  _63
REMARK   26  A    between atoms: _63  and  _64
REMARK   27  A    between atoms: _63  and  _66
REMARK   28  A    between atoms: _69  and  _71
REMARK   29  A    between atoms: _71  and  _72
REMARK   30  A    between atoms: _71  and  _74
REMARK   31  A    between atoms: _74  and  _75
REMARK   32  A    between atoms: _75  and  _76
REMARK   33  A    between atoms: _78  and  _80
REMARK   34  A    between atoms: _80  and  _81
REMARK   35  A    between atoms: _80  and  _83
REMARK   36  A    between atoms: _83  and  _84
REMARK   37  A    between atoms: _87  and  _89
REMARK   38  A    between atoms: _89  and  _90
REMARK   39  A    between atoms: _89  and  _92
REMARK   40  A    between atoms: _92  and  _93
REMARK   41  A    between atoms: _93  and  _94
REMARK   42  A    between atoms: _94  and  _95
REMARK   43  A    between atoms: _95  and  _96
REMARK   44  A    between atoms: _100  and  _102
REMARK   45  A    between atoms: _102  and  _103
REMARK   46  A    between atoms: _102  and  _105
REMARK   47  A    between atoms: _105  and  _106
REMARK   48  A    between atoms: _111  and  _112
REMARK   49  A    between atoms: _114  and  _116
REMARK   50  A    between atoms: _116  and  _117
REMARK   51  A    between atoms: _116  and  _119
REMARK   52  A    between atoms: _119  and  _120
REMARK   53  A    between atoms: _123  and  _125
REMARK   54  A    between atoms: _125  and  _126
REMARK   55  A    between atoms: _125  and  _128
REMARK   56  A    between atoms: _128  and  _129
REMARK   57  A    between atoms: _132  and  _134
REMARK   58  A    between atoms: _134  and  _135
REMARK   59  A    between atoms: _134  and  _137
REMARK   60  A    between atoms: _137  and  _138
REMARK   61  A    between atoms: _141  and  _143
REMARK   62  A    between atoms: _143  and  _144
REMARK   63  A    between atoms: _147  and  _149
REMARK   64  A    between atoms: _149  and  _150
REMARK   65  A    between atoms: _152  and  _154
REMARK   66  A    between atoms: _154  and  _155
REMARK   67  A    between atoms: _158  and  _160
REMARK   68  A    between atoms: _160  and  _161
REMARK   69  A    between atoms: _160  and  _163
REMARK   70  A    between atoms: _163  and  _164
REMARK   71  A    between atoms: _164  and  _165
REMARK   72  A    between atoms: _165  and  _166
REMARK   73  A    between atoms: _175  and  _177
REMARK   74  A    between atoms: _177  and  _178
REMARK   75  A    between atoms: _177  and  _180
REMARK   76  A    between atoms: _180  and  _181
REMARK   77  A    between atoms: _184  and  _186
REMARK   78  A    between atoms: _186  and  _187
REMARK   79  A    between atoms: _186  and  _189
REMARK   80  A    between atoms: _189  and  _190
REMARK   81  A    between atoms: _190  and  _191
REMARK   82  A    between atoms: _196  and  _198
REMARK   83  A    between atoms: _198  and  _199
REMARK   84  A    between atoms: _198  and  _201
REMARK   85  A    between atoms: _201  and  _202
REMARK   86  A    between atoms: _202  and  _203
REMARK   87  A    between atoms: _203  and  _204
REMARK   88  A    between atoms: _213  and  _215
REMARK   89  A    between atoms: _215  and  _216
REMARK   90  A    between atoms: _215  and  _218
REMARK   91  A    between atoms: _218  and  _219
REMARK   92  A    between atoms: _224  and  _226
REMARK   93  A    between atoms: _226  and  _227
REMARK   94  A    between atoms: _226  and  _229
REMARK   95  A    between atoms: _232  and  _234
REMARK   96  A    between atoms: _234  and  _235
REMARK   97  A    between atoms: _234  and  _237
REMARK   98  A    between atoms: _237  and  _238
REMARK   99  A    between atoms: _243  and  _245
REMARK  100  A    between atoms: _245  and  _246
REMARK  101  A    between atoms: _245  and  _248
REMARK  102  A    between atoms: _248  and  _249
REMARK  103  A    between atoms: _252  and  _254
REMARK  104  A    between atoms: _254  and  _255
REMARK  105  A    between atoms: _254  and  _257
REMARK  106  A    between atoms: _257  and  _258
REMARK  107  A    between atoms: _264  and  _266
REMARK  108  A    between atoms: _266  and  _267
REMARK  109  A    between atoms: _266  and  _269
REMARK  110  A    between atoms: _269  and  _270
REMARK  111  A    between atoms: _270  and  _271
REMARK  112  A    between atoms: _271  and  _272
REMARK  113  A    between atoms: _272  and  _273
REMARK  114  A    between atoms: _277  and  _279
REMARK  115  A    between atoms: _279  and  _280
REMARK  116  A    between atoms: _279  and  _282
REMARK  117  A    between atoms: _282  and  _283
REMARK  118  A    between atoms: _289  and  _291
REMARK  119  A    between atoms: _291  and  _292
REMARK  120  A    between atoms: _291  and  _294
REMARK  121  A    between atoms: _294  and  _295
REMARK  122  A    between atoms: _298  and  _300
REMARK  123  A    between atoms: _300  and  _301
REMARK  124  A    between atoms: _300  and  _303
REMARK  125  A    between atoms: _303  and  _304
REMARK  126  A    between atoms: _307  and  _309
REMARK  127  A    between atoms: _309  and  _310
REMARK  128  A    between atoms: _309  and  _312
REMARK  129  A    between atoms: _312  and  _313
REMARK  130  A    between atoms: _318  and  _320
REMARK  131  A    between atoms: _320  and  _321
REMARK  132  A    between atoms: _320  and  _323
REMARK  133  A    between atoms: _323  and  _324
REMARK                            x       y       z     vdW  Elec       q    Type
REMARK                         _______ _______ _______ _____ _____    ______ ____
ROOT
ATOM      1  CA  LEU A   1       1.114  10.330  33.044  0.00  0.00    +0.133 C 
ENDROOT
BRANCH   1   2
ATOM      2  N   LEU A   1      -0.231  10.377  33.523  0.00  0.00    -0.239 NA
ATOM      3  H   LEU A   1      -0.456  10.094  34.498  0.00  0.00    +0.142 HD
ENDBRANCH   1   2
BRANCH   1   4
ATOM      4  C   LEU A   1       1.491   8.867  32.841  0.00  0.00    +0.224 C 
ATOM      5  O   LEU A   1       1.507   8.370  31.714  0.00  0.00    -0.287 OA
ENDBRANCH   1   4
BRANCH   1   6
ATOM      6  CB  LEU A   1       2.093  11.160  33.895  0.00  0.00    +0.025 C 
BRANCH   6   7
ATOM      7  CG  LEU A   1       2.299  12.676  33.856  0.00  0.00    +0.002 C 
ATOM      8  CD2 LEU A   1       2.425  12.847  35.371  0.00  0.00    +0.000 C 
ATOM      9  CD1 LEU A   1       3.651  13.077  33.266  0.00  0.00    +0.000 C 
ENDBRANCH   6   7
ENDBRANCH   1   6
TORSDOF 4
REMARK  Name = ../refined-set-2016/4i9u/4i9u_pocket.pdb
REMARK  133 active torsions:
REMARK  status: ('A' for Active; 'I' for Inactive)
REMARK    1  A    between atoms: _1  and  _3
REMARK    2  A    between atoms: _3  and  _4
REMARK    3  A    between atoms: _3  and  _6
REMARK    4  A    between atoms: _9  and  _11
REMARK    5  A    between atoms: _11  and  _12
REMARK    6  A    between atoms: _11  and  _14
REMARK    7  A    between atoms: _17  and  _19
REMARK    8  A    between atoms: _19  and  _20
REMARK    9  A    between atoms: _22  and  _24
REMARK   10  A    between atoms: _24  and  _25
REMARK   11  A    between atoms: _24  and  _27
REMARK   12  A    between atoms: _30  and  _32
REMARK   13  A    between atoms: _32  and  _33
REMARK   14  A    between atoms: _35  and  _37
REMARK   15  A    between atoms: _37  and  _38
REMARK   16  A    between atoms: _37  and  _40
REMARK   17  A    between atoms: _40  and  _41
REMARK   18  A    between atoms: _44  and  _46
REMARK   19  A    between atoms: _46  and  _47
REMARK   20  A    between atoms: _46  and  _49
REMARK   21  A    between atoms: _52  and  _54
REMARK   22  A    between atoms: _54  and  _55
REMARK   23  A    between atoms: _54  and  _57
REMARK   24  A    between atoms: _57  and  _58
REMARK   25  A    between atoms: _61  and  _63
REMARK   26  A    between atoms: _63  and  _64
REMARK   27  A    between atoms: _63  and  _66
REMARK   28  A    between atoms: _69  and  _71
REMARK   29  A    between atoms: _71  and  _72
REMARK   30  A    between atoms: _71  and  _74
REMARK   31  A    between atoms: _74  and  _75
REMARK   32  A    between atoms: _75  and  _76
REMARK   33  A    between atoms: _78  and  _80
REMARK   34  A    between atoms: _80  and  _81
REMARK   35  A    between atoms: _80  and  _83
REMARK   36  A    between atoms: _83  and  _84
REMARK   37  A    between atoms: _87  and  _89
REMARK   38  A    between atoms: _89  and  _90
REMARK   39  A    between atoms: _89  and  _92
REMARK   40  A    between atoms: _92  and  _93
REMARK   41  A    between atoms: _93  and  _94
REMARK   42  A    between atoms: _94  and  _95
REMARK   43  A    between atoms: _95  and  _96
REMARK   44  A    between atoms: _100  and  _102
REMARK   45  A    between atoms: _102  and  _103
REMARK   46  A    between atoms: _102  and  _105
REMARK   47  A    between atoms: _105  and  _106
REMARK   48  A    between atoms: _111  and  _112
REMARK   49  A    between atoms: _114  and  _116
REMARK   50  A    between atoms: _116  and  _117
REMARK   51  A    between atoms: _116  and  _119
REMARK   52  A    between atoms: _119  and  _120
REMARK   53  A    between atoms: _123  and  _125
REMARK   54  A    between atoms: _125  and  _126
REMARK   55  A    between atoms: _125  and  _128
REMARK   56  A    between atoms: _128  and  _129
REMARK   57  A    between atoms: _132  and  _134
REMARK   58  A    between atoms: _134  and  _135
REMARK   59  A    between atoms: _134  and  _137
REMARK   60  A    between atoms: _137  and  _138
REMARK   61  A    between atoms: _141  and  _143
REMARK   62  A    between atoms: _143  and  _144
REMARK   63  A    between atoms: _147  and  _149
REMARK   64  A    between atoms: _149  and  _150
REMARK   65  A    between atoms: _152  and  _154
REMARK   66  A    between atoms: _154  and  _155
REMARK   67  A    between atoms: _158  and  _160
REMARK   68  A    between atoms: _160  and  _161
REMARK   69  A    between atoms: _160  and  _163
REMARK   70  A    between atoms: _163  and  _164
REMARK   71  A    between atoms: _164  and  _165
REMARK   72  A    between atoms: _165  and  _166
REMARK   73  A    between atoms: _175  and  _177
REMARK   74  A    between atoms: _177  and  _178
REMARK   75  A    between atoms: _177  and  _180
REMARK   76  A    between atoms: _180  and  _181
REMARK   77  A    between atoms: _184  and  _186
REMARK   78  A    between atoms: _186  and  _187
REMARK   79  A    between atoms: _186  and  _189
REMARK   80  A    between atoms: _189  and  _190
REMARK   81  A    between atoms: _190  and  _191
REMARK   82  A    between atoms: _196  and  _198
REMARK   83  A    between atoms: _198  and  _199
REMARK   84  A    between atoms: _198  and  _201
REMARK   85  A    between atoms: _201  and  _202
REMARK   86  A    between atoms: _202  and  _203
REMARK   87  A    between atoms: _203  and  _204
REMARK   88  A    between atoms: _213  and  _215
REMARK   89  A    between atoms: _215  and  _216
REMARK   90  A    between atoms: _215  and  _218
REMARK   91  A    between atoms: _218  and  _219
REMARK   92  A    between atoms: _224  and  _226
REMARK   93  A    between atoms: _226  and  _227
REMARK   94  A    between atoms: _226  and  _229
REMARK   95  A    between atoms: _232  and  _234
REMARK   96  A    between atoms: _234  and  _235
REMARK   97  A    between atoms: _234  and  _237
REMARK   98  A    between atoms: _237  and  _238
REMARK   99  A    between atoms: _243  and  _245
REMARK  100  A    between atoms: _245  and  _246
REMARK  101  A    between atoms: _245  and  _248
REMARK  102  A    between atoms: _248  and  _249
REMARK  103  A    between atoms: _252  and  _254
REMARK  104  A    between atoms: _254  and  _255
REMARK  105  A    between atoms: _254  and  _257
REMARK  106  A    between atoms: _257  and  _258
REMARK  107  A    between atoms: _264  and  _266
REMARK  108  A    between atoms: _266  and  _267
REMARK  109  A    between atoms: _266  and  _269
REMARK  110  A    between atoms: _269  and  _270
REMARK  111  A    between atoms: _270  and  _271
REMARK  112  A    between atoms: _271  and  _272
REMARK  113  A    between atoms: _272  and  _273
REMARK  114  A    between atoms: _277  and  _279
REMARK  115  A    between atoms: _279  and  _280
REMARK  116  A    between atoms: _279  and  _282
REMARK  117  A    between atoms: _282  and  _283
REMARK  118  A    between atoms: _289  and  _291
REMARK  119  A    between atoms: _291  and  _292
REMARK  120  A    between atoms: _291  and  _294
REMARK  121  A    between atoms: _294  and  _295
REMARK  122  A    between atoms: _298  and  _300
REMARK  123  A    between atoms: _300  and  _301
REMARK  124  A    between atoms: _300  and  _303
REMARK  125  A    between atoms: _303  and  _304
REMARK  126  A    between atoms: _307  and  _309
REMARK  127  A    between atoms: _309  and  _310
REMARK  128  A    between atoms: _309  and  _312
REMARK  129  A    between atoms: _312  and  _313
REMARK  130  A    between atoms: _318  and  _320
REMARK  131  A    between atoms: _320  and  _321
REMARK  132  A    between atoms: _320  and  _323
REMARK  133  A    between atoms: _323  and  _324
REMARK                            x       y       z     vdW  Elec       q    Type
REMARK                         _______ _______ _______ _____ _____    ______ ____
ROOT
ATOM      1  CA  ILE A   6      10.395   6.987  28.972  0.00  0.00    +0.149 C 
ENDROOT
BRANCH   1   2
ATOM      2  C   ILE A   6      11.213   5.751  29.391  0.00  0.00    +0.241 C 
ATOM      3  N   PHE A   7      10.706   5.002  30.367  0.00  0.00    -0.297 N 
ATOM      4  H   PHE A   7       9.811   5.284  30.815  0.00  0.00    +0.150 HD
ATOM      5  O   ILE A   6      12.280   5.479  28.833  0.00  0.00    -0.273 OA
BRANCH   3   6
ATOM      6  CA  PHE A   7      11.385   3.790  30.821  0.00  0.00    +0.153 C 
BRANCH   6   7
ATOM      7  C   PHE A   7      11.503   2.767  29.693  0.00  0.00    +0.241 C 
ATOM      8  O   PHE A   7      12.433   1.960  29.672  0.00  0.00    -0.273 OA
ATOM      9  N   LYS A   8      10.557   2.797  28.760  0.00  0.00    -0.297 N 
ATOM     10  H   LYS A   8       9.779   3.482  28.843  0.00  0.00    +0.150 HD
BRANCH   9  11
ATOM     11  CA  LYS A   8      10.592   1.885  27.621  0.00  0.00    +0.149 C 
BRANCH  11  12
ATOM     12  C   LYS A   8      11.787   2.169  26.729  0.00  0.00    +0.241 C 
ATOM     13  N   PHE A   9      12.325   3.383  26.836  0.00  0.00    -0.297 N 
ATOM     14  H   PHE A   9      11.872   4.083  27.458  0.00  0.00    +0.150 HD
ATOM     15  O   LYS A   8      12.215   1.300  25.968  0.00  0.00    -0.273 OA
BRANCH  13  16
ATOM     16  CA  PHE A   9      13.535   3.762  26.105  0.00  0.00    +0.153 C 
BRANCH  16  17
ATOM     17  C   PHE A   9      14.798   3.605  26.941  0.00  0.00    +0.241 C 
ATOM     18  N   ILE A  10      14.754   4.107  28.169  0.00  0.00    -0.297 N 
ATOM     19  H   ILE A  10      13.860   4.501  28.525  0.00  0.00    +0.150 HD
ATOM     20  O   PHE A   9      15.792   3.053  26.481  0.00  0.00    -0.273 OA
BRANCH  18  21
ATOM     21  CA  ILE A  10      15.926   4.119  29.028  0.00  0.00    +0.149 C 
BRANCH  21  22
ATOM     22  C   ILE A  10      16.338   2.735  29.525  0.00  0.00    +0.241 C 
ATOM     23  N   ILE A  11      15.370   1.906  29.884  0.00  0.00    -0.298 N 
ATOM     24  H   ILE A  11      14.379   2.139  29.672  0.00  0.00    +0.150 HD
ATOM     25  O   ILE A  10      17.523   2.421  29.587  0.00  0.00    -0.273 OA
BRANCH  23  26
ATOM     26  CA  ILE A  11      15.694   0.672  30.574  0.00  0.00    +0.137 C 
BRANCH  26  27
ATOM     27  C   ILE A  11      16.349  -0.403  29.708  0.00  0.00    +0.227 C 
ATOM     28  O   ILE A  11      17.279  -1.074  30.147  0.00  0.00    -0.286 OA
ENDBRANCH  26  27
BRANCH  26  29
ATOM     29  CB  ILE A  11      14.460   0.071  31.244  0.00  0.00    +0.026 C 
ATOM     30  CG2 ILE A  11      14.830  -1.237  31.922  0.00  0.00    +0.002 C 
BRANCH  29  31
ATOM     31  CG1 ILE A  11      13.907   1.055  32.266  0.00  0.00    +0.002 C 
ATOM     32  CD1 ILE A  11      14.873   1.384  33.387  0.00  0.00    +0.000 C 
ENDBRANCH  29  31
ENDBRANCH  26  29
ENDBRANCH  23  26
ENDBRANCH  21  22
BRANCH  21  33
ATOM     33  CB  ILE A  10      15.698   5.006  30.253  0.00  0.00    +0.027 C 
ATOM     34  CG2 ILE A  10      16.858   4.867  31.194  0.00  0.00    +0.002 C 
BRANCH  33  35
ATOM     35  CG1 ILE A  10      15.527   6.460  29.828  0.00  0.00    +0.002 C 
ATOM     36  CD1 ILE A  10      15.225   7.382  30.976  0.00  0.00    +0.000 C 
ENDBRANCH  33  35
ENDBRANCH  21  33
ENDBRANCH  18  21
ENDBRANCH  16  17
BRANCH  16  37
ATOM     37  CB  PHE A   9      13.455   5.214  25.632  0.00  0.00    +0.055 C 
BRANCH  37  38
ATOM     38  CG  PHE A   9      14.661   5.655  24.854  0.00  0.00    -0.020 A 
ATOM     39  CD2 PHE A   9      15.415   6.728  25.272  0.00  0.00    -0.004 A 
ATOM     40  CE2 PHE A   9      16.535   7.120  24.566  0.00  0.00    -0.000 A 
ATOM     41  CZ  PHE A   9      16.906   6.433  23.427  0.00  0.00    -0.000 A 
ATOM     42  CE1 PHE A   9      16.156   5.359  23.001  0.00  0.00    -0.000 A 
ATOM     43  CD1 PHE A   9      15.044   4.977  23.711  0.00  0.00    -0.004 A 
ENDBRANCH  37  38
ENDBRANCH  16  37
ENDBRANCH  13  16
ENDBRANCH  11  12
BRANCH  11  44
ATOM     44  CB  LYS A   8       9.306   1.991  26.805  0.00  0.00    +0.029 C 
BRANCH  44  45
ATOM     45  CG  LYS A   8       8.145   1.203  27.391  0.00  0.00    +0.000 C 
BRANCH  45  46
ATOM     46  CD  LYS A   8       8.004  -0.188  26.760  0.00  0.00    -0.024 C 
BRANCH  46  47
ATOM     47  CE  LYS A   8       9.145  -1.137  27.149  0.00  0.00    -0.086 C 
BRANCH  47  48
ATOM     48  NZ  LYS A   8      10.462  -0.787  26.520  0.00  0.00    +0.380 N 
ATOM     49  HZ1 LYS A   8      11.184  -1.470  26.827  0.00  0.00    -0.089 HD
ATOM     50  HZ2 LYS A   8      10.741   0.171  26.814  0.00  0.00    -0.089 HD
ATOM     51  HZ3 LYS A   8      10.370  -0.820  25.485  0.00  0.00    -0.089 HD
ENDBRANCH  47  48
ENDBRANCH  46  47
ENDBRANCH  45  46
ENDBRANCH  44  45
ENDBRANCH  11  44
ENDBRANCH   9  11
ENDBRANCH   6   7
BRANCH   6  52
ATOM     52  CB  PHE A   7      10.637   3.163  32.008  0.00  0.00    +0.055 C 
BRANCH  52  53
ATOM     53  CG  PHE A   7      10.963   3.790  33.347  0.00  0.00    -0.020 A 
ATOM     54  CD2 PHE A   7      10.992   3.017  34.498  0.00  0.00    -0.004 A 
ATOM     55  CE2 PHE A   7      11.255   3.587  35.730  0.00  0.00    -0.000 A 
ATOM     56  CZ  PHE A   7      11.495   4.942  35.828  0.00  0.00    -0.000 A 
ATOM     57  CE1 PHE A   7      11.474   5.723  34.693  0.00  0.00    -0.000 A 
ATOM     58  CD1 PHE A   7      11.209   5.147  33.459  0.00  0.00    -0.004 A 
ENDBRANCH  52  53
ENDBRANCH   6  52
ENDBRANCH   3   6
ENDBRANCH   1   2
BRANCH   1  60
ATOM     59  C   ASN A   5       8.693   5.682  27.810  0.00  0.00    +0.241 C 
ATOM     60  N   ILE A   6       9.006   6.651  28.667  0.00  0.00    -0.297 N 
ATOM     61  H   ILE A   6       8.242   7.183  29.132  0.00  0.00    +0.150 HD
ATOM     62  O   ASN A   5       9.528   5.095  27.123  0.00  0.00    -0.273 OA
BRANCH  59  63
ATOM     63  CA  ASN A   5       7.225   5.290  27.732  0.00  0.00    +0.158 C 
BRANCH  63  66
ATOM     64  C   VAL A   4       7.067   4.147  29.851  0.00  0.00    +0.241 C 
ATOM     65  O   VAL A   4       7.942   3.327  29.538  0.00  0.00    -0.273 OA
ATOM     66  N   ASN A   5       6.682   5.145  29.063  0.00  0.00    -0.297 N 
ATOM     67  H   ASN A   5       5.981   5.831  29.409  0.00  0.00    +0.150 HD
BRANCH  64  68
ATOM     68  CA  VAL A   4       6.372   4.084  31.197  0.00  0.00    +0.149 C 
BRANCH  68  71
ATOM     69  C   ASN A   3       7.192   6.265  31.918  0.00  0.00    +0.241 C 
ATOM     70  O   ASN A   3       8.368   5.900  31.849  0.00  0.00    -0.273 OA
ATOM     71  N   VAL A   4       6.165   5.458  31.654  0.00  0.00    -0.297 N 
ATOM     72  H   VAL A   4       5.195   5.813  31.776  0.00  0.00    +0.150 HD
BRANCH  69  73
ATOM     73  CA  ASN A   3       6.848   7.697  32.320  0.00  0.00    +0.158 C 
BRANCH  73  75
ATOM     74  C   ARG A   2       5.636   8.186  30.264  0.00  0.00    +0.241 C 
ATOM     75  N   ASN A   3       5.680   8.183  31.594  0.00  0.00    -0.297 N 
ATOM     76  H   ASN A   3       4.861   8.536  32.129  0.00  0.00    +0.150 HD
ATOM     77  O   ARG A   2       6.611   7.902  29.562  0.00  0.00    -0.273 OA
BRANCH  74  78
ATOM     78  CA  ARG A   2       4.292   8.556  29.622  0.00  0.00    +0.149 C 
BRANCH  78  80
ATOM     79  C   GLN A   1       3.251   6.390  29.893  0.00  0.00    +0.238 C 
ATOM     80  N   ARG A   2       3.238   7.698  30.142  0.00  0.00    -0.297 N 
ATOM     81  H   ARG A   2       2.470   8.109  30.711  0.00  0.00    +0.150 HD
ATOM     82  O   GLN A   1       4.087   5.869  29.173  0.00  0.00    -0.274 OA
BRANCH  79  83
ATOM     83  CA  GLN A   1       2.183   5.518  30.571  0.00  0.00    +0.145 C 
BRANCH  83  84
ATOM     84  N   GLN A   1       1.904   6.051  31.914  0.00  0.00    -0.238 NA
ATOM     85  H   GLN A   1       0.922   6.237  32.202  0.00  0.00    +0.142 HD
ENDBRANCH  83  84
BRANCH  83  86
ATOM     86  CB  GLN A   1       0.881   5.475  29.765  0.00  0.00    +0.036 C 
BRANCH  86  87
ATOM     87  CG  GLN A   1       1.013   4.668  28.491  0.00  0.00    +0.087 C 
BRANCH  87  88
ATOM     88  CD  GLN A   1       1.529   3.261  28.726  0.00  0.00    +0.219 C 
ATOM     89  OE1 GLN A   1       0.876   2.461  29.387  0.00  0.00    -0.275 OA
ATOM     90  NE2 GLN A   1       2.704   2.949  28.176  0.00  0.00    -0.329 N 
ATOM     91 HE21 GLN A   1       3.100   1.995  28.301  0.00  0.00    +0.145 HD
ATOM     92 HE22 GLN A   1       3.224   3.660  27.623  0.00  0.00    +0.145 HD
ENDBRANCH  87  88
ENDBRANCH  86  87
ENDBRANCH  83  86
ENDBRANCH  79  83
ENDBRANCH  78  80
BRANCH  78  93
ATOM     93  CB  ARG A   2       3.956  10.024  29.891  0.00  0.00    +0.033 C 
BRANCH  93  94
ATOM     94  CG  ARG A   2       3.816  10.880  28.625  0.00  0.00    +0.045 C 
BRANCH  94  95
ATOM     95  CD  ARG A   2       3.235  12.261  28.925  0.00  0.00    +0.174 C 
BRANCH  95  96
ATOM     96  NE  ARG A   2       4.264  13.256  29.227  0.00  0.00    -0.265 N 
ATOM     97  CZ  ARG A   2       4.027  14.430  29.809  0.00  0.00    +0.342 C 
ATOM     98  NH2 ARG A   2       2.794  14.766  30.169  0.00  0.00    -0.292 N 
ATOM     99 HH21 ARG A   2       2.617  15.685  30.623  0.00  0.00    +0.255 HD
ATOM    100 HH22 ARG A   2       2.005  14.110  29.997  0.00  0.00    +0.255 HD
ATOM    101  NH1 ARG A   2       5.026  15.269  30.042  0.00  0.00    -0.292 N 
ATOM    102 HH11 ARG A   2       4.840  16.186  30.497  0.00  0.00    +0.255 HD
ATOM    103 HH12 ARG A   2       5.996  15.011  29.770  0.00  0.00    +0.255 HD
ATOM    104  HE  ARG A   2       5.246  13.031  28.970  0.00  0.00    +0.259 HD
ENDBRANCH  95  96
ENDBRANCH  94  95
ENDBRANCH  93  94
ENDBRANCH  78  93
ENDBRANCH  74  78
ENDBRANCH  73  75
BRANCH  73 105
ATOM    105  CB  ASN A   3       6.602   7.756  33.831  0.00  0.00    +0.114 C 
BRANCH 105 106
ATOM    106  CG  ASN A   3       6.693   9.164  34.382  0.00  0.00    +0.222 C 
ATOM    107  OD1 ASN A   3       5.842   9.592  35.156  0.00  0.00    -0.275 OA
ATOM    108  ND2 ASN A   3       7.726   9.893  33.984  0.00  0.00    -0.329 N 
ATOM    109 HD21 ASN A   3       7.838  10.868  34.329  0.00  0.00    +0.145 HD
ATOM    110 HD22 ASN A   3       8.424   9.490  33.327  0.00  0.00    +0.145 HD
ENDBRANCH 105 106
ENDBRANCH  73 105
ENDBRANCH  69  73
ENDBRANCH  68  71
BRANCH  68 111
ATOM    111  CB  VAL A   4       5.031   3.314  31.028  0.00  0.00    +0.027 C 
ATOM    112  CG2 VAL A   4       4.445   2.982  32.395  0.00  0.00    +0.002 C 
ATOM    113  CG1 VAL A   4       5.258   2.021  30.224  0.00  0.00    +0.002 C 
ENDBRANCH  68 111
ENDBRANCH  64  68
ENDBRANCH  63  66
BRANCH  63 114
ATOM    114  CB  ASN A   5       6.407   6.322  26.956  0.00  0.00    +0.114 C 
BRANCH 114 115
ATOM    115  CG  ASN A   5       5.041   5.795  26.569  0.00  0.00    +0.222 C 
ATOM    116  ND2 ASN A   5       4.043   6.666  26.579  0.00  0.00    -0.329 N 
ATOM    117 HD21 ASN A   5       4.221   7.658  26.836  0.00  0.00    +0.145 HD
ATOM    118 HD22 ASN A   5       3.081   6.358  26.330  0.00  0.00    +0.145 HD
ATOM    119  OD1 ASN A   5       4.886   4.606  26.272  0.00  0.00    -0.275 OA
ENDBRANCH 114 115
ENDBRANCH  63 114
ENDBRANCH  59  63
ENDBRANCH   1  60
BRANCH   1 120
ATOM    120  CB  ILE A   6      10.480   8.040  30.106  0.00  0.00    +0.027 C 
ATOM    121  CG2 ILE A   6      11.941   8.345  30.426  0.00  0.00    +0.002 C 
BRANCH 120 122
ATOM    122  CG1 ILE A   6       9.764   9.324  29.688  0.00  0.00    +0.002 C 
ATOM    123  CD1 ILE A   6       9.865  10.452  30.698  0.00  0.00    +0.000 C 
ENDBRANCH 120 122
ENDBRANCH   1 120
TORSDOF 49
REMARK  Name = ../refined-set-2016/4i9u/4i9u_pocket.pdb
REMARK  133 active torsions:
REMARK  status: ('A' for Active; 'I' for Inactive)
REMARK    1  A    between atoms: _1  and  _3
REMARK    2  A    between atoms: _3  and  _4
REMARK    3  A    between atoms: _3  and  _6
REMARK    4  A    between atoms: _9  and  _11
REMARK    5  A    between atoms: _11  and  _12
REMARK    6  A    between atoms: _11  and  _14
REMARK    7  A    between atoms: _17  and  _19
REMARK    8  A    between atoms: _19  and  _20
REMARK    9  A    between atoms: _22  and  _24
REMARK   10  A    between atoms: _24  and  _25
REMARK   11  A    between atoms: _24  and  _27
REMARK   12  A    between atoms: _30  and  _32
REMARK   13  A    between atoms: _32  and  _33
REMARK   14  A    between atoms: _35  and  _37
REMARK   15  A    between atoms: _37  and  _38
REMARK   16  A    between atoms: _37  and  _40
REMARK   17  A    between atoms: _40  and  _41
REMARK   18  A    between atoms: _44  and  _46
REMARK   19  A    between atoms: _46  and  _47
REMARK   20  A    between atoms: _46  and  _49
REMARK   21  A    between atoms: _52  and  _54
REMARK   22  A    between atoms: _54  and  _55
REMARK   23  A    between atoms: _54  and  _57
REMARK   24  A    between atoms: _57  and  _58
REMARK   25  A    between atoms: _61  and  _63
REMARK   26  A    between atoms: _63  and  _64
REMARK   27  A    between atoms: _63  and  _66
REMARK   28  A    between atoms: _69  and  _71
REMARK   29  A    between atoms: _71  and  _72
REMARK   30  A    between atoms: _71  and  _74
REMARK   31  A    between atoms: _74  and  _75
REMARK   32  A    between atoms: _75  and  _76
REMARK   33  A    between atoms: _78  and  _80
REMARK   34  A    between atoms: _80  and  _81
REMARK   35  A    between atoms: _80  and  _83
REMARK   36  A    between atoms: _83  and  _84
REMARK   37  A    between atoms: _87  and  _89
REMARK   38  A    between atoms: _89  and  _90
REMARK   39  A    between atoms: _89  and  _92
REMARK   40  A    between atoms: _92  and  _93
REMARK   41  A    between atoms: _93  and  _94
REMARK   42  A    between atoms: _94  and  _95
REMARK   43  A    between atoms: _95  and  _96
REMARK   44  A    between atoms: _100  and  _102
REMARK   45  A    between atoms: _102  and  _103
REMARK   46  A    between atoms: _102  and  _105
REMARK   47  A    between atoms: _105  and  _106
REMARK   48  A    between atoms: _111  and  _112
REMARK   49  A    between atoms: _114  and  _116
REMARK   50  A    between atoms: _116  and  _117
REMARK   51  A    between atoms: _116  and  _119
REMARK   52  A    between atoms: _119  and  _120
REMARK   53  A    between atoms: _123  and  _125
REMARK   54  A    between atoms: _125  and  _126
REMARK   55  A    between atoms: _125  and  _128
REMARK   56  A    between atoms: _128  and  _129
REMARK   57  A    between atoms: _132  and  _134
REMARK   58  A    between atoms: _134  and  _135
REMARK   59  A    between atoms: _134  and  _137
REMARK   60  A    between atoms: _137  and  _138
REMARK   61  A    between atoms: _141  and  _143
REMARK   62  A    between atoms: _143  and  _144
REMARK   63  A    between atoms: _147  and  _149
REMARK   64  A    between atoms: _149  and  _150
REMARK   65  A    between atoms: _152  and  _154
REMARK   66  A    between atoms: _154  and  _155
REMARK   67  A    between atoms: _158  and  _160
REMARK   68  A    between atoms: _160  and  _161
REMARK   69  A    between atoms: _160  and  _163
REMARK   70  A    between atoms: _163  and  _164
REMARK   71  A    between atoms: _164  and  _165
REMARK   72  A    between atoms: _165  and  _166
REMARK   73  A    between atoms: _175  and  _177
REMARK   74  A    between atoms: _177  and  _178
REMARK   75  A    between atoms: _177  and  _180
REMARK   76  A    between atoms: _180  and  _181
REMARK   77  A    between atoms: _184  and  _186
REMARK   78  A    between atoms: _186  and  _187
REMARK   79  A    between atoms: _186  and  _189
REMARK   80  A    between atoms: _189  and  _190
REMARK   81  A    between atoms: _190  and  _191
REMARK   82  A    between atoms: _196  and  _198
REMARK   83  A    between atoms: _198  and  _199
REMARK   84  A    between atoms: _198  and  _201
REMARK   85  A    between atoms: _201  and  _202
REMARK   86  A    between atoms: _202  and  _203
REMARK   87  A    between atoms: _203  and  _204
REMARK   88  A    between atoms: _213  and  _215
REMARK   89  A    between atoms: _215  and  _216
REMARK   90  A    between atoms: _215  and  _218
REMARK   91  A    between atoms: _218  and  _219
REMARK   92  A    between atoms: _224  and  _226
REMARK   93  A    between atoms: _226  and  _227
REMARK   94  A    between atoms: _226  and  _229
REMARK   95  A    between atoms: _232  and  _234
REMARK   96  A    between atoms: _234  and  _235
REMARK   97  A    between atoms: _234  and  _237
REMARK   98  A    between atoms: _237  and  _238
REMARK   99  A    between atoms: _243  and  _245
REMARK  100  A    between atoms: _245  and  _246
REMARK  101  A    between atoms: _245  and  _248
REMARK  102  A    between atoms: _248  and  _249
REMARK  103  A    between atoms: _252  and  _254
REMARK  104  A    between atoms: _254  and  _255
REMARK  105  A    between atoms: _254  and  _257
REMARK  106  A    between atoms: _257  and  _258
REMARK  107  A    between atoms: _264  and  _266
REMARK  108  A    between atoms: _266  and  _267
REMARK  109  A    between atoms: _266  and  _269
REMARK  110  A    between atoms: _269  and  _270
REMARK  111  A    between atoms: _270  and  _271
REMARK  112  A    between atoms: _271  and  _272
REMARK  113  A    between atoms: _272  and  _273
REMARK  114  A    between atoms: _277  and  _279
REMARK  115  A    between atoms: _279  and  _280
REMARK  116  A    between atoms: _279  and  _282
REMARK  117  A    between atoms: _282  and  _283
REMARK  118  A    between atoms: _289  and  _291
REMARK  119  A    between atoms: _291  and  _292
REMARK  120  A    between atoms: _291  and  _294
REMARK  121  A    between atoms: _294  and  _295
REMARK  122  A    between atoms: _298  and  _300
REMARK  123  A    between atoms: _300  and  _301
REMARK  124  A    between atoms: _300  and  _303
REMARK  125  A    between atoms: _303  and  _304
REMARK  126  A    between atoms: _307  and  _309
REMARK  127  A    between atoms: _309  and  _310
REMARK  128  A    between atoms: _309  and  _312
REMARK  129  A    between atoms: _312  and  _313
REMARK  130  A    between atoms: _318  and  _320
REMARK  131  A    between atoms: _320  and  _321
REMARK  132  A    between atoms: _320  and  _323
REMARK  133  A    between atoms: _323  and  _324
REMARK                            x       y       z     vdW  Elec       q    Type
REMARK                         _______ _______ _______ _____ _____    ______ ____
ROOT
ATOM      1  CB  ASN A   1      19.488   2.298  26.834  0.00  0.00    +0.110 C 
ENDROOT
BRANCH   1   2
ATOM      2  CG  ASN A   1      19.415   2.744  25.385  0.00  0.00    +0.221 C 
ATOM      3  OD1 ASN A   1      18.595   3.586  25.026  0.00  0.00    -0.275 OA
ATOM      4  ND2 ASN A   1      20.278   2.183  24.547  0.00  0.00    -0.329 N 
ATOM      5 HD21 ASN A   1      20.955   1.474  24.895  0.00  0.00    +0.145 HD
ATOM      6 HD22 ASN A   1      20.277   2.452  23.542  0.00  0.00    +0.145 HD
ENDBRANCH   1   2
BRANCH   1   7
ATOM      7  CA  ASN A   1      19.547   0.772  26.982  0.00  0.00    +0.142 C 
BRANCH   7   8
ATOM      8  N   ASN A   1      18.204   0.208  27.122  0.00  0.00    -0.239 NA
ATOM      9  H   ASN A   1      17.382   0.846  27.115  0.00  0.00    +0.142 HD
ENDBRANCH   7   8
BRANCH   7  10
ATOM     10  C   ASN A   1      20.434   0.423  28.176  0.00  0.00    +0.225 C 
ATOM     11  O   ASN A   1      21.531  -0.126  27.998  0.00  0.00    -0.287 OA
ENDBRANCH   7  10
ENDBRANCH   1   7
TORSDOF 4
REMARK  Name = ../refined-set-2016/4i9u/4i9u_pocket.pdb
REMARK  133 active torsions:
REMARK  status: ('A' for Active; 'I' for Inactive)
REMARK    1  A    between atoms: _1  and  _3
REMARK    2  A    between atoms: _3  and  _4
REMARK    3  A    between atoms: _3  and  _6
REMARK    4  A    between atoms: _9  and  _11
REMARK    5  A    between atoms: _11  and  _12
REMARK    6  A    between atoms: _11  and  _14
REMARK    7  A    between atoms: _17  and  _19
REMARK    8  A    between atoms: _19  and  _20
REMARK    9  A    between atoms: _22  and  _24
REMARK   10  A    between atoms: _24  and  _25
REMARK   11  A    between atoms: _24  and  _27
REMARK   12  A    between atoms: _30  and  _32
REMARK   13  A    between atoms: _32  and  _33
REMARK   14  A    between atoms: _35  and  _37
REMARK   15  A    between atoms: _37  and  _38
REMARK   16  A    between atoms: _37  and  _40
REMARK   17  A    between atoms: _40  and  _41
REMARK   18  A    between atoms: _44  and  _46
REMARK   19  A    between atoms: _46  and  _47
REMARK   20  A    between atoms: _46  and  _49
REMARK   21  A    between atoms: _52  and  _54
REMARK   22  A    between atoms: _54  and  _55
REMARK   23  A    between atoms: _54  and  _57
REMARK   24  A    between atoms: _57  and  _58
REMARK   25  A    between atoms: _61  and  _63
REMARK   26  A    between atoms: _63  and  _64
REMARK   27  A    between atoms: _63  and  _66
REMARK   28  A    between atoms: _69  and  _71
REMARK   29  A    between atoms: _71  and  _72
REMARK   30  A    between atoms: _71  and  _74
REMARK   31  A    between atoms: _74  and  _75
REMARK   32  A    between atoms: _75  and  _76
REMARK   33  A    between atoms: _78  and  _80
REMARK   34  A    between atoms: _80  and  _81
REMARK   35  A    between atoms: _80  and  _83
REMARK   36  A    between atoms: _83  and  _84
REMARK   37  A    between atoms: _87  and  _89
REMARK   38  A    between atoms: _89  and  _90
REMARK   39  A    between atoms: _89  and  _92
REMARK   40  A    between atoms: _92  and  _93
REMARK   41  A    between atoms: _93  and  _94
REMARK   42  A    between atoms: _94  and  _95
REMARK   43  A    between atoms: _95  and  _96
REMARK   44  A    between atoms: _100  and  _102
REMARK   45  A    between atoms: _102  and  _103
REMARK   46  A    between atoms: _102  and  _105
REMARK   47  A    between atoms: _105  and  _106
REMARK   48  A    between atoms: _111  and  _112
REMARK   49  A    between atoms: _114  and  _116
REMARK   50  A    between atoms: _116  and  _117
REMARK   51  A    between atoms: _116  and  _119
REMARK   52  A    between atoms: _119  and  _120
REMARK   53  A    between atoms: _123  and  _125
REMARK   54  A    between atoms: _125  and  _126
REMARK   55  A    between atoms: _125  and  _128
REMARK   56  A    between atoms: _128  and  _129
REMARK   57  A    between atoms: _132  and  _134
REMARK   58  A    between atoms: _134  and  _135
REMARK   59  A    between atoms: _134  and  _137
REMARK   60  A    between atoms: _137  and  _138
REMARK   61  A    between atoms: _141  and  _143
REMARK   62  A    between atoms: _143  and  _144
REMARK   63  A    between atoms: _147  and  _149
REMARK   64  A    between atoms: _149  and  _150
REMARK   65  A    between atoms: _152  and  _154
REMARK   66  A    between atoms: _154  and  _155
REMARK   67  A    between atoms: _158  and  _160
REMARK   68  A    between atoms: _160  and  _161
REMARK   69  A    between atoms: _160  and  _163
REMARK   70  A    between atoms: _163  and  _164
REMARK   71  A    between atoms: _164  and  _165
REMARK   72  A    between atoms: _165  and  _166
REMARK   73  A    between atoms: _175  and  _177
REMARK   74  A    between atoms: _177  and  _178
REMARK   75  A    between atoms: _177  and  _180
REMARK   76  A    between atoms: _180  and  _181
REMARK   77  A    between atoms: _184  and  _186
REMARK   78  A    between atoms: _186  and  _187
REMARK   79  A    between atoms: _186  and  _189
REMARK   80  A    between atoms: _189  and  _190
REMARK   81  A    between atoms: _190  and  _191
REMARK   82  A    between atoms: _196  and  _198
REMARK   83  A    between atoms: _198  and  _199
REMARK   84  A    between atoms: _198  and  _201
REMARK   85  A    between atoms: _201  and  _202
REMARK   86  A    between atoms: _202  and  _203
REMARK   87  A    between atoms: _203  and  _204
REMARK   88  A    between atoms: _213  and  _215
REMARK   89  A    between atoms: _215  and  _216
REMARK   90  A    between atoms: _215  and  _218
REMARK   91  A    between atoms: _218  and  _219
REMARK   92  A    between atoms: _224  and  _226
REMARK   93  A    between atoms: _226  and  _227
REMARK   94  A    between atoms: _226  and  _229
REMARK   95  A    between atoms: _232  and  _234
REMARK   96  A    between atoms: _234  and  _235
REMARK   97  A    between atoms: _234  and  _237
REMARK   98  A    between atoms: _237  and  _238
REMARK   99  A    between atoms: _243  and  _245
REMARK  100  A    between atoms: _245  and  _246
REMARK  101  A    between atoms: _245  and  _248
REMARK  102  A    between atoms: _248  and  _249
REMARK  103  A    between atoms: _252  and  _254
REMARK  104  A    between atoms: _254  and  _255
REMARK  105  A    between atoms: _254  and  _257
REMARK  106  A    between atoms: _257  and  _258
REMARK  107  A    between atoms: _264  and  _266
REMARK  108  A    between atoms: _266  and  _267
REMARK  109  A    between atoms: _266  and  _269
REMARK  110  A    between atoms: _269  and  _270
REMARK  111  A    between atoms: _270  and  _271
REMARK  112  A    between atoms: _271  and  _272
REMARK  113  A    between atoms: _272  and  _273
REMARK  114  A    between atoms: _277  and  _279
REMARK  115  A    between atoms: _279  and  _280
REMARK  116  A    between atoms: _279  and  _282
REMARK  117  A    between atoms: _282  and  _283
REMARK  118  A    between atoms: _289  and  _291
REMARK  119  A    between atoms: _291  and  _292
REMARK  120  A    between atoms: _291  and  _294
REMARK  121  A    between atoms: _294  and  _295
REMARK  122  A    between atoms: _298  and  _300
REMARK  123  A    between atoms: _300  and  _301
REMARK  124  A    between atoms: _300  and  _303
REMARK  125  A    between atoms: _303  and  _304
REMARK  126  A    between atoms: _307  and  _309
REMARK  127  A    between atoms: _309  and  _310
REMARK  128  A    between atoms: _309  and  _312
REMARK  129  A    between atoms: _312  and  _313
REMARK  130  A    between atoms: _318  and  _320
REMARK  131  A    between atoms: _320  and  _321
REMARK  132  A    between atoms: _320  and  _323
REMARK  133  A    between atoms: _323  and  _324
REMARK                            x       y       z     vdW  Elec       q    Type
REMARK                         _______ _______ _______ _____ _____    ______ ____
ROOT
ATOM      1  CA  SER A   1      11.047   8.517  40.054  0.00  0.00    +0.163 C 
ENDROOT
BRANCH   1   2
ATOM      2  N   SER A   1      12.080   7.668  40.655  0.00  0.00    -0.237 NA
ATOM      3  H   SER A   1      12.688   7.098  40.033  0.00  0.00    +0.142 HD
ENDBRANCH   1   2
BRANCH   1   4
ATOM      4  CB  SER A   1       9.608   8.110  40.386  0.00  0.00    +0.227 C 
ATOM      5  OG  SER A   1       9.289   6.928  40.465  0.00  0.00    -0.287 OA
ENDBRANCH   1   4
BRANCH   1   6
ATOM      6  C   SER A   1      11.228   8.531  38.546  0.00  0.00    +0.162 C 
BRANCH   6   7
ATOM      7  O   SER A   1      11.959   7.394  38.141  0.00  0.00    -0.380 OA
ATOM      8  H   SER A   1      12.073   7.410  37.158  0.00  0.00    +0.211 HD
ENDBRANCH   6   7
ENDBRANCH   1   6
TORSDOF 4
REMARK  Name = ../refined-set-2016/4i9u/4i9u_pocket.pdb
REMARK  133 active torsions:
REMARK  status: ('A' for Active; 'I' for Inactive)
REMARK    1  A    between atoms: _1  and  _3
REMARK    2  A    between atoms: _3  and  _4
REMARK    3  A    between atoms: _3  and  _6
REMARK    4  A    between atoms: _9  and  _11
REMARK    5  A    between atoms: _11  and  _12
REMARK    6  A    between atoms: _11  and  _14
REMARK    7  A    between atoms: _17  and  _19
REMARK    8  A    between atoms: _19  and  _20
REMARK    9  A    between atoms: _22  and  _24
REMARK   10  A    between atoms: _24  and  _25
REMARK   11  A    between atoms: _24  and  _27
REMARK   12  A    between atoms: _30  and  _32
REMARK   13  A    between atoms: _32  and  _33
REMARK   14  A    between atoms: _35  and  _37
REMARK   15  A    between atoms: _37  and  _38
REMARK   16  A    between atoms: _37  and  _40
REMARK   17  A    between atoms: _40  and  _41
REMARK   18  A    between atoms: _44  and  _46
REMARK   19  A    between atoms: _46  and  _47
REMARK   20  A    between atoms: _46  and  _49
REMARK   21  A    between atoms: _52  and  _54
REMARK   22  A    between atoms: _54  and  _55
REMARK   23  A    between atoms: _54  and  _57
REMARK   24  A    between atoms: _57  and  _58
REMARK   25  A    between atoms: _61  and  _63
REMARK   26  A    between atoms: _63  and  _64
REMARK   27  A    between atoms: _63  and  _66
REMARK   28  A    between atoms: _69  and  _71
REMARK   29  A    between atoms: _71  and  _72
REMARK   30  A    between atoms: _71  and  _74
REMARK   31  A    between atoms: _74  and  _75
REMARK   32  A    between atoms: _75  and  _76
REMARK   33  A    between atoms: _78  and  _80
REMARK   34  A    between atoms: _80  and  _81
REMARK   35  A    between atoms: _80  and  _83
REMARK   36  A    between atoms: _83  and  _84
REMARK   37  A    between atoms: _87  and  _89
REMARK   38  A    between atoms: _89  and  _90
REMARK   39  A    between atoms: _89  and  _92
REMARK   40  A    between atoms: _92  and  _93
REMARK   41  A    between atoms: _93  and  _94
REMARK   42  A    between atoms: _94  and  _95
REMARK   43  A    between atoms: _95  and  _96
REMARK   44  A    between atoms: _100  and  _102
REMARK   45  A    between atoms: _102  and  _103
REMARK   46  A    between atoms: _102  and  _105
REMARK   47  A    between atoms: _105  and  _106
REMARK   48  A    between atoms: _111  and  _112
REMARK   49  A    between atoms: _114  and  _116
REMARK   50  A    between atoms: _116  and  _117
REMARK   51  A    between atoms: _116  and  _119
REMARK   52  A    between atoms: _119  and  _120
REMARK   53  A    between atoms: _123  and  _125
REMARK   54  A    between atoms: _125  and  _126
REMARK   55  A    between atoms: _125  and  _128
REMARK   56  A    between atoms: _128  and  _129
REMARK   57  A    between atoms: _132  and  _134
REMARK   58  A    between atoms: _134  and  _135
REMARK   59  A    between atoms: _134  and  _137
REMARK   60  A    between atoms: _137  and  _138
REMARK   61  A    between atoms: _141  and  _143
REMARK   62  A    between atoms: _143  and  _144
REMARK   63  A    between atoms: _147  and  _149
REMARK   64  A    between atoms: _149  and  _150
REMARK   65  A    between atoms: _152  and  _154
REMARK   66  A    between atoms: _154  and  _155
REMARK   67  A    between atoms: _158  and  _160
REMARK   68  A    between atoms: _160  and  _161
REMARK   69  A    between atoms: _160  and  _163
REMARK   70  A    between atoms: _163  and  _164
REMARK   71  A    between atoms: _164  and  _165
REMARK   72  A    between atoms: _165  and  _166
REMARK   73  A    between atoms: _175  and  _177
REMARK   74  A    between atoms: _177  and  _178
REMARK   75  A    between atoms: _177  and  _180
REMARK   76  A    between atoms: _180  and  _181
REMARK   77  A    between atoms: _184  and  _186
REMARK   78  A    between atoms: _186  and  _187
REMARK   79  A    between atoms: _186  and  _189
REMARK   80  A    between atoms: _189  and  _190
REMARK   81  A    between atoms: _190  and  _191
REMARK   82  A    between atoms: _196  and  _198
REMARK   83  A    between atoms: _198  and  _199
REMARK   84  A    between atoms: _198  and  _201
REMARK   85  A    between atoms: _201  and  _202
REMARK   86  A    between atoms: _202  and  _203
REMARK   87  A    between atoms: _203  and  _204
REMARK   88  A    between atoms: _213  and  _215
REMARK   89  A    between atoms: _215  and  _216
REMARK   90  A    between atoms: _215  and  _218
REMARK   91  A    between atoms: _218  and  _219
REMARK   92  A    between atoms: _224  and  _226
REMARK   93  A    between atoms: _226  and  _227
REMARK   94  A    between atoms: _226  and  _229
REMARK   95  A    between atoms: _232  and  _234
REMARK   96  A    between atoms: _234  and  _235
REMARK   97  A    between atoms: _234  and  _237
REMARK   98  A    between atoms: _237  and  _238
REMARK   99  A    between atoms: _243  and  _245
REMARK  100  A    between atoms: _245  and  _246
REMARK  101  A    between atoms: _245  and  _248
REMARK  102  A    between atoms: _248  and  _249
REMARK  103  A    between atoms: _252  and  _254
REMARK  104  A    between atoms: _254  and  _255
REMARK  105  A    between atoms: _254  and  _257
REMARK  106  A    between atoms: _257  and  _258
REMARK  107  A    between atoms: _264  and  _266
REMARK  108  A    between atoms: _266  and  _267
REMARK  109  A    between atoms: _266  and  _269
REMARK  110  A    between atoms: _269  and  _270
REMARK  111  A    between atoms: _270  and  _271
REMARK  112  A    between atoms: _271  and  _272
REMARK  113  A    between atoms: _272  and  _273
REMARK  114  A    between atoms: _277  and  _279
REMARK  115  A    between atoms: _279  and  _280
REMARK  116  A    between atoms: _279  and  _282
REMARK  117  A    between atoms: _282  and  _283
REMARK  118  A    between atoms: _289  and  _291
REMARK  119  A    between atoms: _291  and  _292
REMARK  120  A    between atoms: _291  and  _294
REMARK  121  A    between atoms: _294  and  _295
REMARK  122  A    between atoms: _298  and  _300
REMARK  123  A    between atoms: _300  and  _301
REMARK  124  A    between atoms: _300  and  _303
REMARK  125  A    between atoms: _303  and  _304
REMARK  126  A    between atoms: _307  and  _309
REMARK  127  A    between atoms: _309  and  _310
REMARK  128  A    between atoms: _309  and  _312
REMARK  129  A    between atoms: _312  and  _313
REMARK  130  A    between atoms: _318  and  _320
REMARK  131  A    between atoms: _320  and  _321
REMARK  132  A    between atoms: _320  and  _323
REMARK  133  A    between atoms: _323  and  _324
REMARK                            x       y       z     vdW  Elec       q    Type
REMARK                         _______ _______ _______ _____ _____    ______ ____
ROOT
ATOM      1  O   HOH     1      16.942  13.557  37.434  0.00  0.00    +0.000 OA
ENDROOT
TORSDOF 0
REMARK  Name = ../refined-set-2016/4i9u/4i9u_pocket.pdb
REMARK  133 active torsions:
REMARK  status: ('A' for Active; 'I' for Inactive)
REMARK    1  A    between atoms: _1  and  _3
REMARK    2  A    between atoms: _3  and  _4
REMARK    3  A    between atoms: _3  and  _6
REMARK    4  A    between atoms: _9  and  _11
REMARK    5  A    between atoms: _11  and  _12
REMARK    6  A    between atoms: _11  and  _14
REMARK    7  A    between atoms: _17  and  _19
REMARK    8  A    between atoms: _19  and  _20
REMARK    9  A    between atoms: _22  and  _24
REMARK   10  A    between atoms: _24  and  _25
REMARK   11  A    between atoms: _24  and  _27
REMARK   12  A    between atoms: _30  and  _32
REMARK   13  A    between atoms: _32  and  _33
REMARK   14  A    between atoms: _35  and  _37
REMARK   15  A    between atoms: _37  and  _38
REMARK   16  A    between atoms: _37  and  _40
REMARK   17  A    between atoms: _40  and  _41
REMARK   18  A    between atoms: _44  and  _46
REMARK   19  A    between atoms: _46  and  _47
REMARK   20  A    between atoms: _46  and  _49
REMARK   21  A    between atoms: _52  and  _54
REMARK   22  A    between atoms: _54  and  _55
REMARK   23  A    between atoms: _54  and  _57
REMARK   24  A    between atoms: _57  and  _58
REMARK   25  A    between atoms: _61  and  _63
REMARK   26  A    between atoms: _63  and  _64
REMARK   27  A    between atoms: _63  and  _66
REMARK   28  A    between atoms: _69  and  _71
REMARK   29  A    between atoms: _71  and  _72
REMARK   30  A    between atoms: _71  and  _74
REMARK   31  A    between atoms: _74  and  _75
REMARK   32  A    between atoms: _75  and  _76
REMARK   33  A    between atoms: _78  and  _80
REMARK   34  A    between atoms: _80  and  _81
REMARK   35  A    between atoms: _80  and  _83
REMARK   36  A    between atoms: _83  and  _84
REMARK   37  A    between atoms: _87  and  _89
REMARK   38  A    between atoms: _89  and  _90
REMARK   39  A    between atoms: _89  and  _92
REMARK   40  A    between atoms: _92  and  _93
REMARK   41  A    between atoms: _93  and  _94
REMARK   42  A    between atoms: _94  and  _95
REMARK   43  A    between atoms: _95  and  _96
REMARK   44  A    between atoms: _100  and  _102
REMARK   45  A    between atoms: _102  and  _103
REMARK   46  A    between atoms: _102  and  _105
REMARK   47  A    between atoms: _105  and  _106
REMARK   48  A    between atoms: _111  and  _112
REMARK   49  A    between atoms: _114  and  _116
REMARK   50  A    between atoms: _116  and  _117
REMARK   51  A    between atoms: _116  and  _119
REMARK   52  A    between atoms: _119  and  _120
REMARK   53  A    between atoms: _123  and  _125
REMARK   54  A    between atoms: _125  and  _126
REMARK   55  A    between atoms: _125  and  _128
REMARK   56  A    between atoms: _128  and  _129
REMARK   57  A    between atoms: _132  and  _134
REMARK   58  A    between atoms: _134  and  _135
REMARK   59  A    between atoms: _134  and  _137
REMARK   60  A    between atoms: _137  and  _138
REMARK   61  A    between atoms: _141  and  _143
REMARK   62  A    between atoms: _143  and  _144
REMARK   63  A    between atoms: _147  and  _149
REMARK   64  A    between atoms: _149  and  _150
REMARK   65  A    between atoms: _152  and  _154
REMARK   66  A    between atoms: _154  and  _155
REMARK   67  A    between atoms: _158  and  _160
REMARK   68  A    between atoms: _160  and  _161
REMARK   69  A    between atoms: _160  and  _163
REMARK   70  A    between atoms: _163  and  _164
REMARK   71  A    between atoms: _164  and  _165
REMARK   72  A    between atoms: _165  and  _166
REMARK   73  A    between atoms: _175  and  _177
REMARK   74  A    between atoms: _177  and  _178
REMARK   75  A    between atoms: _177  and  _180
REMARK   76  A    between atoms: _180  and  _181
REMARK   77  A    between atoms: _184  and  _186
REMARK   78  A    between atoms: _186  and  _187
REMARK   79  A    between atoms: _186  and  _189
REMARK   80  A    between atoms: _189  and  _190
REMARK   81  A    between atoms: _190  and  _191
REMARK   82  A    between atoms: _196  and  _198
REMARK   83  A    between atoms: _198  and  _199
REMARK   84  A    between atoms: _198  and  _201
REMARK   85  A    between atoms: _201  and  _202
REMARK   86  A    between atoms: _202  and  _203
REMARK   87  A    between atoms: _203  and  _204
REMARK   88  A    between atoms: _213  and  _215
REMARK   89  A    between atoms: _215  and  _216
REMARK   90  A    between atoms: _215  and  _218
REMARK   91  A    between atoms: _218  and  _219
REMARK   92  A    between atoms: _224  and  _226
REMARK   93  A    between atoms: _226  and  _227
REMARK   94  A    between atoms: _226  and  _229
REMARK   95  A    between atoms: _232  and  _234
REMARK   96  A    between atoms: _234  and  _235
REMARK   97  A    between atoms: _234  and  _237
REMARK   98  A    between atoms: _237  and  _238
REMARK   99  A    between atoms: _243  and  _245
REMARK  100  A    between atoms: _245  and  _246
REMARK  101  A    between atoms: _245  and  _248
REMARK  102  A    between atoms: _248  and  _249
REMARK  103  A    between atoms: _252  and  _254
REMARK  104  A    between atoms: _254  and  _255
REMARK  105  A    between atoms: _254  and  _257
REMARK  106  A    between atoms: _257  and  _258
REMARK  107  A    between atoms: _264  and  _266
REMARK  108  A    between atoms: _266  and  _267
REMARK  109  A    between atoms: _266  and  _269
REMARK  110  A    between atoms: _269  and  _270
REMARK  111  A    between atoms: _270  and  _271
REMARK  112  A    between atoms: _271  and  _272
REMARK  113  A    between atoms: _272  and  _273
REMARK  114  A    between atoms: _277  and  _279
REMARK  115  A    between atoms: _279  and  _280
REMARK  116  A    between atoms: _279  and  _282
REMARK  117  A    between atoms: _282  and  _283
REMARK  118  A    between atoms: _289  and  _291
REMARK  119  A    between atoms: _291  and  _292
REMARK  120  A    between atoms: _291  and  _294
REMARK  121  A    between atoms: _294  and  _295
REMARK  122  A    between atoms: _298  and  _300
REMARK  123  A    between atoms: _300  and  _301
REMARK  124  A    between atoms: _300  and  _303
REMARK  125  A    between atoms: _303  and  _304
REMARK  126  A    between atoms: _307  and  _309
REMARK  127  A    between atoms: _309  and  _310
REMARK  128  A    between atoms: _309  and  _312
REMARK  129  A    between atoms: _312  and  _313
REMARK  130  A    between atoms: _318  and  _320
REMARK  131  A    between atoms: _320  and  _321
REMARK  132  A    between atoms: _320  and  _323
REMARK  133  A    between atoms: _323  and  _324
REMARK                            x       y       z     vdW  Elec       q    Type
REMARK                         _______ _______ _______ _____ _____    ______ ____
ROOT
ATOM      1  O   HOH     1      17.747   9.159  27.885  0.00  0.00    +0.000 OA
ENDROOT
TORSDOF 0
REMARK  Name = ../refined-set-2016/4i9u/4i9u_pocket.pdb
REMARK  133 active torsions:
REMARK  status: ('A' for Active; 'I' for Inactive)
REMARK    1  A    between atoms: _1  and  _3
REMARK    2  A    between atoms: _3  and  _4
REMARK    3  A    between atoms: _3  and  _6
REMARK    4  A    between atoms: _9  and  _11
REMARK    5  A    between atoms: _11  and  _12
REMARK    6  A    between atoms: _11  and  _14
REMARK    7  A    between atoms: _17  and  _19
REMARK    8  A    between atoms: _19  and  _20
REMARK    9  A    between atoms: _22  and  _24
REMARK   10  A    between atoms: _24  and  _25
REMARK   11  A    between atoms: _24  and  _27
REMARK   12  A    between atoms: _30  and  _32
REMARK   13  A    between atoms: _32  and  _33
REMARK   14  A    between atoms: _35  and  _37
REMARK   15  A    between atoms: _37  and  _38
REMARK   16  A    between atoms: _37  and  _40
REMARK   17  A    between atoms: _40  and  _41
REMARK   18  A    between atoms: _44  and  _46
REMARK   19  A    between atoms: _46  and  _47
REMARK   20  A    between atoms: _46  and  _49
REMARK   21  A    between atoms: _52  and  _54
REMARK   22  A    between atoms: _54  and  _55
REMARK   23  A    between atoms: _54  and  _57
REMARK   24  A    between atoms: _57  and  _58
REMARK   25  A    between atoms: _61  and  _63
REMARK   26  A    between atoms: _63  and  _64
REMARK   27  A    between atoms: _63  and  _66
REMARK   28  A    between atoms: _69  and  _71
REMARK   29  A    between atoms: _71  and  _72
REMARK   30  A    between atoms: _71  and  _74
REMARK   31  A    between atoms: _74  and  _75
REMARK   32  A    between atoms: _75  and  _76
REMARK   33  A    between atoms: _78  and  _80
REMARK   34  A    between atoms: _80  and  _81
REMARK   35  A    between atoms: _80  and  _83
REMARK   36  A    between atoms: _83  and  _84
REMARK   37  A    between atoms: _87  and  _89
REMARK   38  A    between atoms: _89  and  _90
REMARK   39  A    between atoms: _89  and  _92
REMARK   40  A    between atoms: _92  and  _93
REMARK   41  A    between atoms: _93  and  _94
REMARK   42  A    between atoms: _94  and  _95
REMARK   43  A    between atoms: _95  and  _96
REMARK   44  A    between atoms: _100  and  _102
REMARK   45  A    between atoms: _102  and  _103
REMARK   46  A    between atoms: _102  and  _105
REMARK   47  A    between atoms: _105  and  _106
REMARK   48  A    between atoms: _111  and  _112
REMARK   49  A    between atoms: _114  and  _116
REMARK   50  A    between atoms: _116  and  _117
REMARK   51  A    between atoms: _116  and  _119
REMARK   52  A    between atoms: _119  and  _120
REMARK   53  A    between atoms: _123  and  _125
REMARK   54  A    between atoms: _125  and  _126
REMARK   55  A    between atoms: _125  and  _128
REMARK   56  A    between atoms: _128  and  _129
REMARK   57  A    between atoms: _132  and  _134
REMARK   58  A    between atoms: _134  and  _135
REMARK   59  A    between atoms: _134  and  _137
REMARK   60  A    between atoms: _137  and  _138
REMARK   61  A    between atoms: _141  and  _143
REMARK   62  A    between atoms: _143  and  _144
REMARK   63  A    between atoms: _147  and  _149
REMARK   64  A    between atoms: _149  and  _150
REMARK   65  A    between atoms: _152  and  _154
REMARK   66  A    between atoms: _154  and  _155
REMARK   67  A    between atoms: _158  and  _160
REMARK   68  A    between atoms: _160  and  _161
REMARK   69  A    between atoms: _160  and  _163
REMARK   70  A    between atoms: _163  and  _164
REMARK   71  A    between atoms: _164  and  _165
REMARK   72  A    between atoms: _165  and  _166
REMARK   73  A    between atoms: _175  and  _177
REMARK   74  A    between atoms: _177  and  _178
REMARK   75  A    between atoms: _177  and  _180
REMARK   76  A    between atoms: _180  and  _181
REMARK   77  A    between atoms: _184  and  _186
REMARK   78  A    between atoms: _186  and  _187
REMARK   79  A    between atoms: _186  and  _189
REMARK   80  A    between atoms: _189  and  _190
REMARK   81  A    between atoms: _190  and  _191
REMARK   82  A    between atoms: _196  and  _198
REMARK   83  A    between atoms: _198  and  _199
REMARK   84  A    between atoms: _198  and  _201
REMARK   85  A    between atoms: _201  and  _202
REMARK   86  A    between atoms: _202  and  _203
REMARK   87  A    between atoms: _203  and  _204
REMARK   88  A    between atoms: _213  and  _215
REMARK   89  A    between atoms: _215  and  _216
REMARK   90  A    between atoms: _215  and  _218
REMARK   91  A    between atoms: _218  and  _219
REMARK   92  A    between atoms: _224  and  _226
REMARK   93  A    between atoms: _226  and  _227
REMARK   94  A    between atoms: _226  and  _229
REMARK   95  A    between atoms: _232  and  _234
REMARK   96  A    between atoms: _234  and  _235
REMARK   97  A    between atoms: _234  and  _237
REMARK   98  A    between atoms: _237  and  _238
REMARK   99  A    between atoms: _243  and  _245
REMARK  100  A    between atoms: _245  and  _246
REMARK  101  A    between atoms: _245  and  _248
REMARK  102  A    between atoms: _248  and  _249
REMARK  103  A    between atoms: _252  and  _254
REMARK  104  A    between atoms: _254  and  _255
REMARK  105  A    between atoms: _254  and  _257
REMARK  106  A    between atoms: _257  and  _258
REMARK  107  A    between atoms: _264  and  _266
REMARK  108  A    between atoms: _266  and  _267
REMARK  109  A    between atoms: _266  and  _269
REMARK  110  A    between atoms: _269  and  _270
REMARK  111  A    between atoms: _270  and  _271
REMARK  112  A    between atoms: _271  and  _272
REMARK  113  A    between atoms: _272  and  _273
REMARK  114  A    between atoms: _277  and  _279
REMARK  115  A    between atoms: _279  and  _280
REMARK  116  A    between atoms: _279  and  _282
REMARK  117  A    between atoms: _282  and  _283
REMARK  118  A    between atoms: _289  and  _291
REMARK  119  A    between atoms: _291  and  _292
REMARK  120  A    between atoms: _291  and  _294
REMARK  121  A    between atoms: _294  and  _295
REMARK  122  A    between atoms: _298  and  _300
REMARK  123  A    between atoms: _300  and  _301
REMARK  124  A    between atoms: _300  and  _303
REMARK  125  A    between atoms: _303  and  _304
REMARK  126  A    between atoms: _307  and  _309
REMARK  127  A    between atoms: _309  and  _310
REMARK  128  A    between atoms: _309  and  _312
REMARK  129  A    between atoms: _312  and  _313
REMARK  130  A    between atoms: _318  and  _320
REMARK  131  A    between atoms: _320  and  _321
REMARK  132  A    between atoms: _320  and  _323
REMARK  133  A    between atoms: _323  and  _324
REMARK                            x       y       z     vdW  Elec       q    Type
REMARK                         _______ _______ _______ _____ _____    ______ ____
ROOT
ATOM      1  O   HOH     1       0.606  14.870  31.473  0.00  0.00    +0.000 OA
ENDROOT
TORSDOF 0
