REMARK  Name = ../refined-set-2016/3zc5/3zc5_pocket.pdb
REMARK  226 active torsions:
REMARK  status: ('A' for Active; 'I' for Inactive)
REMARK    1  A    between atoms: _1  and  _3
REMARK    2  A    between atoms: _3  and  _4
REMARK    3  A    between atoms: _3  and  _6
REMARK    4  A    between atoms: _9  and  _11
REMARK    5  A    between atoms: _11  and  _12
REMARK    6  A    between atoms: _11  and  _14
REMARK    7  A    between atoms: _14  and  _15
REMARK    8  A    between atoms: _18  and  _20
REMARK    9  A    between atoms: _20  and  _21
REMARK   10  A    between atoms: _23  and  _25
REMARK   11  A    between atoms: _25  and  _26
REMARK   12  A    between atoms: _25  and  _28
REMARK   13  A    between atoms: _28  and  _29
REMARK   14  A    between atoms: _29  and  _30
REMARK   15  A    between atoms: _30  and  _31
REMARK   16  A    between atoms: _40  and  _42
REMARK   17  A    between atoms: _42  and  _43
REMARK   18  A    between atoms: _45  and  _47
REMARK   19  A    between atoms: _47  and  _48
REMARK   20  A    between atoms: _47  and  _50
REMARK   21  A    between atoms: _52  and  _54
REMARK   22  A    between atoms: _54  and  _55
REMARK   23  A    between atoms: _54  and  _57
REMARK   24  A    between atoms: _60  and  _62
REMARK   25  A    between atoms: _62  and  _63
REMARK   26  A    between atoms: _62  and  _65
REMARK   27  A    between atoms: _65  and  _66
REMARK   28  A    between atoms: _71  and  _72
REMARK   29  A    between atoms: _74  and  _76
REMARK   30  A    between atoms: _76  and  _77
REMARK   31  A    between atoms: _76  and  _79
REMARK   32  A    between atoms: _79  and  _80
REMARK   33  A    between atoms: _85  and  _87
REMARK   34  A    between atoms: _87  and  _88
REMARK   35  A    between atoms: _90  and  _92
REMARK   36  A    between atoms: _92  and  _93
REMARK   37  A    between atoms: _92  and  _95
REMARK   38  A    between atoms: _95  and  _96
REMARK   39  A    between atoms: _101  and  _103
REMARK   40  A    between atoms: _103  and  _104
REMARK   41  A    between atoms: _103  and  _106
REMARK   42  A    between atoms: _108  and  _110
REMARK   43  A    between atoms: _110  and  _111
REMARK   44  A    between atoms: _114  and  _116
REMARK   45  A    between atoms: _116  and  _117
REMARK   46  A    between atoms: _116  and  _119
REMARK   47  A    between atoms: _122  and  _124
REMARK   48  A    between atoms: _124  and  _125
REMARK   49  A    between atoms: _124  and  _127
REMARK   50  A    between atoms: _127  and  _128
REMARK   51  A    between atoms: _128  and  _129
REMARK   52  A    between atoms: _129  and  _130
REMARK   53  A    between atoms: _130  and  _131
REMARK   54  A    between atoms: _135  and  _137
REMARK   55  A    between atoms: _137  and  _138
REMARK   56  A    between atoms: _137  and  _140
REMARK   57  A    between atoms: _140  and  _141
REMARK   58  A    between atoms: _143  and  _145
REMARK   59  A    between atoms: _145  and  _146
REMARK   60  A    between atoms: _145  and  _148
REMARK   61  A    between atoms: _148  and  _149
REMARK   62  A    between atoms: _149  and  _150
REMARK   63  A    between atoms: _152  and  _154
REMARK   64  A    between atoms: _154  and  _155
REMARK   65  A    between atoms: _154  and  _157
REMARK   66  A    between atoms: _157  and  _158
REMARK   67  A    between atoms: _161  and  _163
REMARK   68  A    between atoms: _163  and  _164
REMARK   69  A    between atoms: _163  and  _166
REMARK   70  A    between atoms: _166  and  _167
REMARK   71  A    between atoms: _169  and  _171
REMARK   72  A    between atoms: _171  and  _172
REMARK   73  A    between atoms: _171  and  _174
REMARK   74  A    between atoms: _177  and  _179
REMARK   75  A    between atoms: _179  and  _180
REMARK   76  A    between atoms: _179  and  _182
REMARK   77  A    between atoms: _185  and  _187
REMARK   78  A    between atoms: _187  and  _188
REMARK   79  A    between atoms: _187  and  _190
REMARK   80  A    between atoms: _190  and  _191
REMARK   81  A    between atoms: _195  and  _196
REMARK   82  A    between atoms: _201  and  _203
REMARK   83  A    between atoms: _203  and  _204
REMARK   84  A    between atoms: _203  and  _206
REMARK   85  A    between atoms: _206  and  _207
REMARK   86  A    between atoms: _212  and  _213
REMARK   87  A    between atoms: _215  and  _217
REMARK   88  A    between atoms: _217  and  _218
REMARK   89  A    between atoms: _217  and  _220
REMARK   90  A    between atoms: _220  and  _221
REMARK   91  A    between atoms: _221  and  _222
REMARK   92  A    between atoms: _224  and  _226
REMARK   93  A    between atoms: _226  and  _227
REMARK   94  A    between atoms: _226  and  _229
REMARK   95  A    between atoms: _229  and  _230
REMARK   96  A    between atoms: _230  and  _231
REMARK   97  A    between atoms: _231  and  _232
REMARK   98  A    between atoms: _232  and  _233
REMARK   99  A    between atoms: _237  and  _239
REMARK  100  A    between atoms: _239  and  _240
REMARK  101  A    between atoms: _239  and  _242
REMARK  102  A    between atoms: _242  and  _243
REMARK  103  A    between atoms: _248  and  _250
REMARK  104  A    between atoms: _250  and  _251
REMARK  105  A    between atoms: _253  and  _255
REMARK  106  A    between atoms: _255  and  _256
REMARK  107  A    between atoms: _255  and  _258
REMARK  108  A    between atoms: _258  and  _259
REMARK  109  A    between atoms: _262  and  _264
REMARK  110  A    between atoms: _264  and  _265
REMARK  111  A    between atoms: _264  and  _267
REMARK  112  A    between atoms: _267  and  _268
REMARK  113  A    between atoms: _271  and  _273
REMARK  114  A    between atoms: _273  and  _274
REMARK  115  A    between atoms: _273  and  _276
REMARK  116  A    between atoms: _276  and  _277
REMARK  117  A    between atoms: _277  and  _278
REMARK  118  A    between atoms: _278  and  _279
REMARK  119  A    between atoms: _288  and  _290
REMARK  120  A    between atoms: _290  and  _291
REMARK  121  A    between atoms: _290  and  _293
REMARK  122  A    between atoms: _293  and  _294
REMARK  123  A    between atoms: _299  and  _301
REMARK  124  A    between atoms: _301  and  _302
REMARK  125  A    between atoms: _301  and  _304
REMARK  126  A    between atoms: _304  and  _305
REMARK  127  A    between atoms: _311  and  _313
REMARK  128  A    between atoms: _313  and  _314
REMARK  129  A    between atoms: _313  and  _316
REMARK  130  A    between atoms: _316  and  _317
REMARK  131  A    between atoms: _322  and  _324
REMARK  132  A    between atoms: _324  and  _325
REMARK  133  A    between atoms: _324  and  _327
REMARK  134  A    between atoms: _327  and  _328
REMARK  135  A    between atoms: _331  and  _333
REMARK  136  A    between atoms: _333  and  _334
REMARK  137  A    between atoms: _337  and  _339
REMARK  138  A    between atoms: _339  and  _340
REMARK  139  A    between atoms: _343  and  _345
REMARK  140  A    between atoms: _345  and  _346
REMARK  141  A    between atoms: _345  and  _348
REMARK  142  A    between atoms: _348  and  _349
REMARK  143  A    between atoms: _349  and  _350
REMARK  144  A    between atoms: _350  and  _351
REMARK  145  A    between atoms: _360  and  _362
REMARK  146  A    between atoms: _362  and  _363
REMARK  147  A    between atoms: _362  and  _365
REMARK  148  A    between atoms: _365  and  _366
REMARK  149  A    between atoms: _371  and  _373
REMARK  150  A    between atoms: _373  and  _374
REMARK  151  A    between atoms: _373  and  _376
REMARK  152  A    between atoms: _378  and  _380
REMARK  153  A    between atoms: _380  and  _381
REMARK  154  A    between atoms: _380  and  _383
REMARK  155  A    between atoms: _383  and  _384
REMARK  156  A    between atoms: _384  and  _385
REMARK  157  A    between atoms: _387  and  _389
REMARK  158  A    between atoms: _389  and  _390
REMARK  159  A    between atoms: _389  and  _392
REMARK  160  A    between atoms: _392  and  _393
REMARK  161  A    between atoms: _396  and  _398
REMARK  162  A    between atoms: _398  and  _399
REMARK  163  A    between atoms: _398  and  _401
REMARK  164  A    between atoms: _401  and  _402
REMARK  165  A    between atoms: _405  and  _407
REMARK  166  A    between atoms: _407  and  _408
REMARK  167  A    between atoms: _407  and  _410
REMARK  168  A    between atoms: _410  and  _411
REMARK  169  A    between atoms: _411  and  _412
REMARK  170  A    between atoms: _412  and  _413
REMARK  171  A    between atoms: _413  and  _414
REMARK  172  A    between atoms: _418  and  _420
REMARK  173  A    between atoms: _420  and  _421
REMARK  174  A    between atoms: _420  and  _423
REMARK  175  A    between atoms: _426  and  _428
REMARK  176  A    between atoms: _428  and  _429
REMARK  177  A    between atoms: _432  and  _434
REMARK  178  A    between atoms: _434  and  _435
REMARK  179  A    between atoms: _434  and  _437
REMARK  180  A    between atoms: _437  and  _438
REMARK  181  A    between atoms: _441  and  _443
REMARK  182  A    between atoms: _443  and  _444
REMARK  183  A    between atoms: _443  and  _446
REMARK  184  A    between atoms: _446  and  _447
REMARK  185  A    between atoms: _453  and  _455
REMARK  186  A    between atoms: _455  and  _456
REMARK  187  A    between atoms: _455  and  _458
REMARK  188  A    between atoms: _458  and  _459
REMARK  189  A    between atoms: _462  and  _464
REMARK  190  A    between atoms: _464  and  _465
REMARK  191  A    between atoms: _468  and  _470
REMARK  192  A    between atoms: _470  and  _471
REMARK  193  A    between atoms: _470  and  _473
REMARK  194  A    between atoms: _473  and  _474
REMARK  195  A    between atoms: _474  and  _475
REMARK  196  A    between atoms: _475  and  _476
REMARK  197  A    between atoms: _485  and  _487
REMARK  198  A    between atoms: _487  and  _488
REMARK  199  A    between atoms: _487  and  _490
REMARK  200  A    between atoms: _490  and  _491
REMARK  201  A    between atoms: _494  and  _496
REMARK  202  A    between atoms: _496  and  _497
REMARK  203  A    between atoms: _496  and  _499
REMARK  204  A    between atoms: _499  and  _500
REMARK  205  A    between atoms: _500  and  _501
REMARK  206  A    between atoms: _503  and  _505
REMARK  207  A    between atoms: _505  and  _506
REMARK  208  A    between atoms: _505  and  _508
REMARK  209  A    between atoms: _508  and  _509
REMARK  210  A    between atoms: _514  and  _515
REMARK  211  A    between atoms: _517  and  _519
REMARK  212  A    between atoms: _519  and  _520
REMARK  213  A    between atoms: _519  and  _522
REMARK  214  A    between atoms: _522  and  _523
REMARK  215  A    between atoms: _526  and  _528
REMARK  216  A    between atoms: _528  and  _529
REMARK  217  A    between atoms: _528  and  _531
REMARK  218  A    between atoms: _531  and  _532
REMARK  219  A    between atoms: _532  and  _533
REMARK  220  A    between atoms: _533  and  _534
REMARK  221  A    between atoms: _534  and  _535
REMARK  222  A    between atoms: _539  and  _541
REMARK  223  A    between atoms: _541  and  _542
REMARK  224  A    between atoms: _541  and  _544
REMARK  225  A    between atoms: _544  and  _545
REMARK  226  A    between atoms: _550  and  _551
REMARK                            x       y       z     vdW  Elec       q    Type
REMARK                         _______ _______ _______ _____ _____    ______ ____
ROOT
ATOM      1  C   GLY A   3      17.896  87.508  -0.376  0.00  0.00    +0.243 C 
ATOM      2  O   GLY A   3      17.824  88.738  -0.415  0.00  0.00    -0.273 OA
ATOM      3  N   ARG A   4      16.835  86.711  -0.486  0.00  0.00    -0.297 N 
ATOM      4  H   ARG A   4      16.957  85.683  -0.382  0.00  0.00    +0.150 HD
ENDROOT
BRANCH   3   5
ATOM      5  CA  ARG A   4      15.508  87.248  -0.749  0.00  0.00    +0.149 C 
BRANCH   5   6
ATOM      6  C   ARG A   4      14.457  86.637   0.153  0.00  0.00    +0.241 C 
ATOM      7  N   GLY A   5      13.824  87.481   0.961  0.00  0.00    -0.296 N 
ATOM      8  H   GLY A   5      14.110  88.480   0.988  0.00  0.00    +0.150 HD
ATOM      9  O   ARG A   4      14.218  85.432   0.115  0.00  0.00    -0.273 OA
BRANCH   7  10
ATOM     10  CA  GLY A   5      12.738  87.023   1.806  0.00  0.00    +0.163 C 
BRANCH  10  11
ATOM     11  C   GLY A   5      11.445  87.743   1.481  0.00  0.00    +0.229 C 
ATOM     12  O   GLY A   5      11.410  88.601   0.605  0.00  0.00    -0.286 OA
ENDBRANCH  10  11
ENDBRANCH   7  10
ENDBRANCH   5   6
BRANCH   5  13
ATOM     13  CB  ARG A   4      15.117  87.012  -2.209  0.00  0.00    +0.033 C 
BRANCH  13  14
ATOM     14  CG  ARG A   4      16.033  87.688  -3.210  0.00  0.00    +0.045 C 
BRANCH  14  15
ATOM     15  CD  ARG A   4      15.480  87.595  -4.622  0.00  0.00    +0.174 C 
BRANCH  15  16
ATOM     16  NE  ARG A   4      16.052  88.628  -5.479  0.00  0.00    -0.265 N 
ATOM     17  CZ  ARG A   4      15.514  89.831  -5.654  0.00  0.00    +0.342 C 
ATOM     18  NH2 ARG A   4      14.385  90.152  -5.035  0.00  0.00    -0.292 N 
ATOM     19 HH21 ARG A   4      13.919  89.462  -4.412  0.00  0.00    +0.255 HD
ATOM     20 HH22 ARG A   4      13.966  91.094  -5.173  0.00  0.00    +0.255 HD
ATOM     21  NH1 ARG A   4      16.109  90.715  -6.441  0.00  0.00    -0.292 N 
ATOM     22 HH11 ARG A   4      15.688  91.656  -6.578  0.00  0.00    +0.255 HD
ATOM     23 HH12 ARG A   4      16.997  90.468  -6.922  0.00  0.00    +0.255 HD
ATOM     24  HE  ARG A   4      16.935  88.410  -5.984  0.00  0.00    +0.259 HD
ENDBRANCH  15  16
ENDBRANCH  14  15
ENDBRANCH  13  14
ENDBRANCH   5  13
ENDBRANCH   3   5
BRANCH   1  25
ATOM     25  CA  GLY A   3      19.239  86.835  -0.198  0.00  0.00    +0.176 C 
BRANCH  25  28
ATOM     26  C   ILE A   2      21.571  87.291  -0.625  0.00  0.00    +0.241 C 
ATOM     27  O   ILE A   2      21.911  86.218  -0.128  0.00  0.00    -0.273 OA
ATOM     28  N   GLY A   3      20.309  87.701  -0.661  0.00  0.00    -0.295 N 
ATOM     29  H   GLY A   3      20.085  88.650  -1.024  0.00  0.00    +0.150 HD
BRANCH  26  30
ATOM     30  CA  ILE A   2      22.604  88.236  -1.240  0.00  0.00    +0.148 C 
BRANCH  30  32
ATOM     31  C   VAL A   1      22.061  90.018  -2.813  0.00  0.00    +0.238 C 
ATOM     32  N   ILE A   2      22.008  89.527  -1.577  0.00  0.00    -0.297 N 
ATOM     33  H   ILE A   2      21.531  90.075  -0.833  0.00  0.00    +0.150 HD
ATOM     34  O   VAL A   1      22.630  89.438  -3.739  0.00  0.00    -0.274 OA
BRANCH  31  35
ATOM     35  CA  VAL A   1      21.377  91.367  -3.045  0.00  0.00    +0.145 C 
BRANCH  35  36
ATOM     36  CB  VAL A   1      20.100  91.154  -3.908  0.00  0.00    +0.025 C 
ATOM     37  CG2 VAL A   1      19.158  90.182  -3.221  0.00  0.00    +0.002 C 
ATOM     38  CG1 VAL A   1      19.398  92.490  -4.146  0.00  0.00    +0.002 C 
ENDBRANCH  35  36
BRANCH  35  39
ATOM     39  N   VAL A   1      22.307  92.275  -3.703  0.00  0.00    -0.238 NA
ATOM     40  H   VAL A   1      22.201  92.457  -4.721  0.00  0.00    +0.142 HD
ENDBRANCH  35  39
ENDBRANCH  31  35
ENDBRANCH  30  32
BRANCH  30  41
ATOM     41  CB  ILE A   2      23.784  88.400  -0.250  0.00  0.00    +0.027 C 
ATOM     42  CG2 ILE A   2      24.830  89.325  -0.848  0.00  0.00    +0.002 C 
BRANCH  41  43
ATOM     43  CG1 ILE A   2      23.282  88.965   1.082  0.00  0.00    +0.002 C 
ATOM     44  CD1 ILE A   2      24.396  89.287   2.075  0.00  0.00    +0.000 C 
ENDBRANCH  41  43
ENDBRANCH  30  41
ENDBRANCH  26  30
ENDBRANCH  25  28
ENDBRANCH   1  25
TORSDOF 17
REMARK  Name = ../refined-set-2016/3zc5/3zc5_pocket.pdb
REMARK  226 active torsions:
REMARK  status: ('A' for Active; 'I' for Inactive)
REMARK    1  A    between atoms: _1  and  _3
REMARK    2  A    between atoms: _3  and  _4
REMARK    3  A    between atoms: _3  and  _6
REMARK    4  A    between atoms: _9  and  _11
REMARK    5  A    between atoms: _11  and  _12
REMARK    6  A    between atoms: _11  and  _14
REMARK    7  A    between atoms: _14  and  _15
REMARK    8  A    between atoms: _18  and  _20
REMARK    9  A    between atoms: _20  and  _21
REMARK   10  A    between atoms: _23  and  _25
REMARK   11  A    between atoms: _25  and  _26
REMARK   12  A    between atoms: _25  and  _28
REMARK   13  A    between atoms: _28  and  _29
REMARK   14  A    between atoms: _29  and  _30
REMARK   15  A    between atoms: _30  and  _31
REMARK   16  A    between atoms: _40  and  _42
REMARK   17  A    between atoms: _42  and  _43
REMARK   18  A    between atoms: _45  and  _47
REMARK   19  A    between atoms: _47  and  _48
REMARK   20  A    between atoms: _47  and  _50
REMARK   21  A    between atoms: _52  and  _54
REMARK   22  A    between atoms: _54  and  _55
REMARK   23  A    between atoms: _54  and  _57
REMARK   24  A    between atoms: _60  and  _62
REMARK   25  A    between atoms: _62  and  _63
REMARK   26  A    between atoms: _62  and  _65
REMARK   27  A    between atoms: _65  and  _66
REMARK   28  A    between atoms: _71  and  _72
REMARK   29  A    between atoms: _74  and  _76
REMARK   30  A    between atoms: _76  and  _77
REMARK   31  A    between atoms: _76  and  _79
REMARK   32  A    between atoms: _79  and  _80
REMARK   33  A    between atoms: _85  and  _87
REMARK   34  A    between atoms: _87  and  _88
REMARK   35  A    between atoms: _90  and  _92
REMARK   36  A    between atoms: _92  and  _93
REMARK   37  A    between atoms: _92  and  _95
REMARK   38  A    between atoms: _95  and  _96
REMARK   39  A    between atoms: _101  and  _103
REMARK   40  A    between atoms: _103  and  _104
REMARK   41  A    between atoms: _103  and  _106
REMARK   42  A    between atoms: _108  and  _110
REMARK   43  A    between atoms: _110  and  _111
REMARK   44  A    between atoms: _114  and  _116
REMARK   45  A    between atoms: _116  and  _117
REMARK   46  A    between atoms: _116  and  _119
REMARK   47  A    between atoms: _122  and  _124
REMARK   48  A    between atoms: _124  and  _125
REMARK   49  A    between atoms: _124  and  _127
REMARK   50  A    between atoms: _127  and  _128
REMARK   51  A    between atoms: _128  and  _129
REMARK   52  A    between atoms: _129  and  _130
REMARK   53  A    between atoms: _130  and  _131
REMARK   54  A    between atoms: _135  and  _137
REMARK   55  A    between atoms: _137  and  _138
REMARK   56  A    between atoms: _137  and  _140
REMARK   57  A    between atoms: _140  and  _141
REMARK   58  A    between atoms: _143  and  _145
REMARK   59  A    between atoms: _145  and  _146
REMARK   60  A    between atoms: _145  and  _148
REMARK   61  A    between atoms: _148  and  _149
REMARK   62  A    between atoms: _149  and  _150
REMARK   63  A    between atoms: _152  and  _154
REMARK   64  A    between atoms: _154  and  _155
REMARK   65  A    between atoms: _154  and  _157
REMARK   66  A    between atoms: _157  and  _158
REMARK   67  A    between atoms: _161  and  _163
REMARK   68  A    between atoms: _163  and  _164
REMARK   69  A    between atoms: _163  and  _166
REMARK   70  A    between atoms: _166  and  _167
REMARK   71  A    between atoms: _169  and  _171
REMARK   72  A    between atoms: _171  and  _172
REMARK   73  A    between atoms: _171  and  _174
REMARK   74  A    between atoms: _177  and  _179
REMARK   75  A    between atoms: _179  and  _180
REMARK   76  A    between atoms: _179  and  _182
REMARK   77  A    between atoms: _185  and  _187
REMARK   78  A    between atoms: _187  and  _188
REMARK   79  A    between atoms: _187  and  _190
REMARK   80  A    between atoms: _190  and  _191
REMARK   81  A    between atoms: _195  and  _196
REMARK   82  A    between atoms: _201  and  _203
REMARK   83  A    between atoms: _203  and  _204
REMARK   84  A    between atoms: _203  and  _206
REMARK   85  A    between atoms: _206  and  _207
REMARK   86  A    between atoms: _212  and  _213
REMARK   87  A    between atoms: _215  and  _217
REMARK   88  A    between atoms: _217  and  _218
REMARK   89  A    between atoms: _217  and  _220
REMARK   90  A    between atoms: _220  and  _221
REMARK   91  A    between atoms: _221  and  _222
REMARK   92  A    between atoms: _224  and  _226
REMARK   93  A    between atoms: _226  and  _227
REMARK   94  A    between atoms: _226  and  _229
REMARK   95  A    between atoms: _229  and  _230
REMARK   96  A    between atoms: _230  and  _231
REMARK   97  A    between atoms: _231  and  _232
REMARK   98  A    between atoms: _232  and  _233
REMARK   99  A    between atoms: _237  and  _239
REMARK  100  A    between atoms: _239  and  _240
REMARK  101  A    between atoms: _239  and  _242
REMARK  102  A    between atoms: _242  and  _243
REMARK  103  A    between atoms: _248  and  _250
REMARK  104  A    between atoms: _250  and  _251
REMARK  105  A    between atoms: _253  and  _255
REMARK  106  A    between atoms: _255  and  _256
REMARK  107  A    between atoms: _255  and  _258
REMARK  108  A    between atoms: _258  and  _259
REMARK  109  A    between atoms: _262  and  _264
REMARK  110  A    between atoms: _264  and  _265
REMARK  111  A    between atoms: _264  and  _267
REMARK  112  A    between atoms: _267  and  _268
REMARK  113  A    between atoms: _271  and  _273
REMARK  114  A    between atoms: _273  and  _274
REMARK  115  A    between atoms: _273  and  _276
REMARK  116  A    between atoms: _276  and  _277
REMARK  117  A    between atoms: _277  and  _278
REMARK  118  A    between atoms: _278  and  _279
REMARK  119  A    between atoms: _288  and  _290
REMARK  120  A    between atoms: _290  and  _291
REMARK  121  A    between atoms: _290  and  _293
REMARK  122  A    between atoms: _293  and  _294
REMARK  123  A    between atoms: _299  and  _301
REMARK  124  A    between atoms: _301  and  _302
REMARK  125  A    between atoms: _301  and  _304
REMARK  126  A    between atoms: _304  and  _305
REMARK  127  A    between atoms: _311  and  _313
REMARK  128  A    between atoms: _313  and  _314
REMARK  129  A    between atoms: _313  and  _316
REMARK  130  A    between atoms: _316  and  _317
REMARK  131  A    between atoms: _322  and  _324
REMARK  132  A    between atoms: _324  and  _325
REMARK  133  A    between atoms: _324  and  _327
REMARK  134  A    between atoms: _327  and  _328
REMARK  135  A    between atoms: _331  and  _333
REMARK  136  A    between atoms: _333  and  _334
REMARK  137  A    between atoms: _337  and  _339
REMARK  138  A    between atoms: _339  and  _340
REMARK  139  A    between atoms: _343  and  _345
REMARK  140  A    between atoms: _345  and  _346
REMARK  141  A    between atoms: _345  and  _348
REMARK  142  A    between atoms: _348  and  _349
REMARK  143  A    between atoms: _349  and  _350
REMARK  144  A    between atoms: _350  and  _351
REMARK  145  A    between atoms: _360  and  _362
REMARK  146  A    between atoms: _362  and  _363
REMARK  147  A    between atoms: _362  and  _365
REMARK  148  A    between atoms: _365  and  _366
REMARK  149  A    between atoms: _371  and  _373
REMARK  150  A    between atoms: _373  and  _374
REMARK  151  A    between atoms: _373  and  _376
REMARK  152  A    between atoms: _378  and  _380
REMARK  153  A    between atoms: _380  and  _381
REMARK  154  A    between atoms: _380  and  _383
REMARK  155  A    between atoms: _383  and  _384
REMARK  156  A    between atoms: _384  and  _385
REMARK  157  A    between atoms: _387  and  _389
REMARK  158  A    between atoms: _389  and  _390
REMARK  159  A    between atoms: _389  and  _392
REMARK  160  A    between atoms: _392  and  _393
REMARK  161  A    between atoms: _396  and  _398
REMARK  162  A    between atoms: _398  and  _399
REMARK  163  A    between atoms: _398  and  _401
REMARK  164  A    between atoms: _401  and  _402
REMARK  165  A    between atoms: _405  and  _407
REMARK  166  A    between atoms: _407  and  _408
REMARK  167  A    between atoms: _407  and  _410
REMARK  168  A    between atoms: _410  and  _411
REMARK  169  A    between atoms: _411  and  _412
REMARK  170  A    between atoms: _412  and  _413
REMARK  171  A    between atoms: _413  and  _414
REMARK  172  A    between atoms: _418  and  _420
REMARK  173  A    between atoms: _420  and  _421
REMARK  174  A    between atoms: _420  and  _423
REMARK  175  A    between atoms: _426  and  _428
REMARK  176  A    between atoms: _428  and  _429
REMARK  177  A    between atoms: _432  and  _434
REMARK  178  A    between atoms: _434  and  _435
REMARK  179  A    between atoms: _434  and  _437
REMARK  180  A    between atoms: _437  and  _438
REMARK  181  A    between atoms: _441  and  _443
REMARK  182  A    between atoms: _443  and  _444
REMARK  183  A    between atoms: _443  and  _446
REMARK  184  A    between atoms: _446  and  _447
REMARK  185  A    between atoms: _453  and  _455
REMARK  186  A    between atoms: _455  and  _456
REMARK  187  A    between atoms: _455  and  _458
REMARK  188  A    between atoms: _458  and  _459
REMARK  189  A    between atoms: _462  and  _464
REMARK  190  A    between atoms: _464  and  _465
REMARK  191  A    between atoms: _468  and  _470
REMARK  192  A    between atoms: _470  and  _471
REMARK  193  A    between atoms: _470  and  _473
REMARK  194  A    between atoms: _473  and  _474
REMARK  195  A    between atoms: _474  and  _475
REMARK  196  A    between atoms: _475  and  _476
REMARK  197  A    between atoms: _485  and  _487
REMARK  198  A    between atoms: _487  and  _488
REMARK  199  A    between atoms: _487  and  _490
REMARK  200  A    between atoms: _490  and  _491
REMARK  201  A    between atoms: _494  and  _496
REMARK  202  A    between atoms: _496  and  _497
REMARK  203  A    between atoms: _496  and  _499
REMARK  204  A    between atoms: _499  and  _500
REMARK  205  A    between atoms: _500  and  _501
REMARK  206  A    between atoms: _503  and  _505
REMARK  207  A    between atoms: _505  and  _506
REMARK  208  A    between atoms: _505  and  _508
REMARK  209  A    between atoms: _508  and  _509
REMARK  210  A    between atoms: _514  and  _515
REMARK  211  A    between atoms: _517  and  _519
REMARK  212  A    between atoms: _519  and  _520
REMARK  213  A    between atoms: _519  and  _522
REMARK  214  A    between atoms: _522  and  _523
REMARK  215  A    between atoms: _526  and  _528
REMARK  216  A    between atoms: _528  and  _529
REMARK  217  A    between atoms: _528  and  _531
REMARK  218  A    between atoms: _531  and  _532
REMARK  219  A    between atoms: _532  and  _533
REMARK  220  A    between atoms: _533  and  _534
REMARK  221  A    between atoms: _534  and  _535
REMARK  222  A    between atoms: _539  and  _541
REMARK  223  A    between atoms: _541  and  _542
REMARK  224  A    between atoms: _541  and  _544
REMARK  225  A    between atoms: _544  and  _545
REMARK  226  A    between atoms: _550  and  _551
REMARK                            x       y       z     vdW  Elec       q    Type
REMARK                         _______ _______ _______ _____ _____    ______ ____
ROOT
ATOM      1  CA  TYR A   3      22.214  93.030   1.259  0.00  0.00    +0.153 C 
ENDROOT
BRANCH   1   3
ATOM      2  C   VAL A   2      20.380  91.425   1.425  0.00  0.00    +0.241 C 
ATOM      3  N   TYR A   3      21.161  92.336   1.998  0.00  0.00    -0.297 N 
ATOM      4  H   TYR A   3      21.018  92.562   3.003  0.00  0.00    +0.150 HD
ATOM      5  O   VAL A   2      20.522  91.047   0.264  0.00  0.00    -0.273 OA
BRANCH   2   6
ATOM      6  CA  VAL A   2      19.261  90.855   2.283  0.00  0.00    +0.148 C 
BRANCH   6   9
ATOM      7  C   CYS A   1      17.025  91.608   1.680  0.00  0.00    +0.239 C 
ATOM      8  O   CYS A   1      16.950  92.361   2.653  0.00  0.00    -0.274 OA
ATOM      9  N   VAL A   2      18.065  90.813   1.454  0.00  0.00    -0.297 N 
ATOM     10  H   VAL A   2      18.024  90.141   0.662  0.00  0.00    +0.150 HD
BRANCH   7  11
ATOM     11  CA  CYS A   1      15.898  91.526   0.654  0.00  0.00    +0.156 C 
BRANCH  11  12
ATOM     12  CB  CYS A   1      16.370  92.131  -0.664  0.00  0.00    +0.095 C 
ATOM     13  SG  CYS A   1      15.417  91.591  -2.080  0.00  0.00    -0.080 S 
ENDBRANCH  11  12
BRANCH  11  14
ATOM     14  N   CYS A   1      14.671  92.176   1.091  0.00  0.00    -0.237 NA
ATOM     15  H   CYS A   1      14.558  93.199   0.943  0.00  0.00    +0.142 HD
ENDBRANCH  11  14
ENDBRANCH   7  11
ENDBRANCH   6   9
BRANCH   6  16
ATOM     16  CB  VAL A   2      19.673  89.442   2.757  0.00  0.00    +0.027 C 
ATOM     17  CG2 VAL A   2      20.830  89.541   3.743  0.00  0.00    +0.002 C 
ATOM     18  CG1 VAL A   2      18.479  88.730   3.378  0.00  0.00    +0.002 C 
ENDBRANCH   6  16
ENDBRANCH   2   6
ENDBRANCH   1   3
BRANCH   1  19
ATOM     19  C   TYR A   3      23.546  92.867   1.964  0.00  0.00    +0.241 C 
ATOM     20  O   TYR A   3      23.593  92.644   3.175  0.00  0.00    -0.273 OA
ATOM     21  N   HIS A   4      24.626  92.985   1.199  0.00  0.00    -0.297 N 
ATOM     22  H   HIS A   4      24.520  92.965   0.165  0.00  0.00    +0.150 HD
BRANCH  21  23
ATOM     23  CA  HIS A   4      25.954  93.141   1.774  0.00  0.00    +0.155 C 
BRANCH  23  24
ATOM     24  C   HIS A   4      26.019  94.490   2.491  0.00  0.00    +0.241 C 
ATOM     25  N   GLY A   5      26.387  94.455   3.767  0.00  0.00    -0.296 N 
ATOM     26  H   GLY A   5      26.477  93.539   4.251  0.00  0.00    +0.150 HD
ATOM     27  O   HIS A   4      25.720  95.533   1.904  0.00  0.00    -0.273 OA
BRANCH  25  28
ATOM     28  CA  GLY A   5      26.665  95.679   4.492  0.00  0.00    +0.163 C 
BRANCH  28  29
ATOM     29  C   GLY A   5      28.029  95.639   5.164  0.00  0.00    +0.229 C 
ATOM     30  O   GLY A   5      28.758  94.648   5.076  0.00  0.00    -0.286 OA
ENDBRANCH  28  29
ENDBRANCH  25  28
ENDBRANCH  23  24
BRANCH  23  31
ATOM     31  CB  HIS A   4      27.016  93.072   0.666  0.00  0.00    +0.076 C 
BRANCH  31  32
ATOM     32  CG  HIS A   4      28.384  93.509   1.100  0.00  0.00    +0.082 A 
ATOM     33  CD2 HIS A   4      28.964  93.554   2.324  0.00  0.00    +0.115 A 
ATOM     34  NE2 HIS A   4      30.234  94.052   2.155  0.00  0.00    -0.221 NA
ATOM     35  CE1 HIS A   4      30.430  94.303   0.873  0.00  0.00    +0.199 A 
ATOM     36  ND1 HIS A   4      29.330  93.984   0.215  0.00  0.00    -0.227 NA
ENDBRANCH  31  32
ENDBRANCH  23  31
ENDBRANCH  21  23
ENDBRANCH   1  19
BRANCH   1  37
ATOM     37  CB  TYR A   3      21.893  94.526   1.142  0.00  0.00    +0.055 C 
BRANCH  37  38
ATOM     38  CG  TYR A   3      20.583  94.810   0.451  0.00  0.00    -0.020 A 
ATOM     39  CD2 TYR A   3      19.427  95.050   1.182  0.00  0.00    -0.001 A 
ATOM     40  CE2 TYR A   3      18.211  95.254   0.548  0.00  0.00    +0.036 A 
ATOM     41  CZ  TYR A   3      18.147  95.216  -0.828  0.00  0.00    +0.134 A 
ATOM     42  CE1 TYR A   3      19.280  94.986  -1.571  0.00  0.00    +0.036 A 
ATOM     43  CD1 TYR A   3      20.489  94.787  -0.933  0.00  0.00    -0.001 A 
BRANCH  41  44
ATOM     44  OH  TYR A   3      16.943  95.396  -1.471  0.00  0.00    -0.506 OA
ATOM     45  HH  TYR A   3      17.081  95.338  -2.450  0.00  0.00    +0.292 HD
ENDBRANCH  41  44
ENDBRANCH  37  38
ENDBRANCH   1  37
TORSDOF 17
REMARK  Name = ../refined-set-2016/3zc5/3zc5_pocket.pdb
REMARK  226 active torsions:
REMARK  status: ('A' for Active; 'I' for Inactive)
REMARK    1  A    between atoms: _1  and  _3
REMARK    2  A    between atoms: _3  and  _4
REMARK    3  A    between atoms: _3  and  _6
REMARK    4  A    between atoms: _9  and  _11
REMARK    5  A    between atoms: _11  and  _12
REMARK    6  A    between atoms: _11  and  _14
REMARK    7  A    between atoms: _14  and  _15
REMARK    8  A    between atoms: _18  and  _20
REMARK    9  A    between atoms: _20  and  _21
REMARK   10  A    between atoms: _23  and  _25
REMARK   11  A    between atoms: _25  and  _26
REMARK   12  A    between atoms: _25  and  _28
REMARK   13  A    between atoms: _28  and  _29
REMARK   14  A    between atoms: _29  and  _30
REMARK   15  A    between atoms: _30  and  _31
REMARK   16  A    between atoms: _40  and  _42
REMARK   17  A    between atoms: _42  and  _43
REMARK   18  A    between atoms: _45  and  _47
REMARK   19  A    between atoms: _47  and  _48
REMARK   20  A    between atoms: _47  and  _50
REMARK   21  A    between atoms: _52  and  _54
REMARK   22  A    between atoms: _54  and  _55
REMARK   23  A    between atoms: _54  and  _57
REMARK   24  A    between atoms: _60  and  _62
REMARK   25  A    between atoms: _62  and  _63
REMARK   26  A    between atoms: _62  and  _65
REMARK   27  A    between atoms: _65  and  _66
REMARK   28  A    between atoms: _71  and  _72
REMARK   29  A    between atoms: _74  and  _76
REMARK   30  A    between atoms: _76  and  _77
REMARK   31  A    between atoms: _76  and  _79
REMARK   32  A    between atoms: _79  and  _80
REMARK   33  A    between atoms: _85  and  _87
REMARK   34  A    between atoms: _87  and  _88
REMARK   35  A    between atoms: _90  and  _92
REMARK   36  A    between atoms: _92  and  _93
REMARK   37  A    between atoms: _92  and  _95
REMARK   38  A    between atoms: _95  and  _96
REMARK   39  A    between atoms: _101  and  _103
REMARK   40  A    between atoms: _103  and  _104
REMARK   41  A    between atoms: _103  and  _106
REMARK   42  A    between atoms: _108  and  _110
REMARK   43  A    between atoms: _110  and  _111
REMARK   44  A    between atoms: _114  and  _116
REMARK   45  A    between atoms: _116  and  _117
REMARK   46  A    between atoms: _116  and  _119
REMARK   47  A    between atoms: _122  and  _124
REMARK   48  A    between atoms: _124  and  _125
REMARK   49  A    between atoms: _124  and  _127
REMARK   50  A    between atoms: _127  and  _128
REMARK   51  A    between atoms: _128  and  _129
REMARK   52  A    between atoms: _129  and  _130
REMARK   53  A    between atoms: _130  and  _131
REMARK   54  A    between atoms: _135  and  _137
REMARK   55  A    between atoms: _137  and  _138
REMARK   56  A    between atoms: _137  and  _140
REMARK   57  A    between atoms: _140  and  _141
REMARK   58  A    between atoms: _143  and  _145
REMARK   59  A    between atoms: _145  and  _146
REMARK   60  A    between atoms: _145  and  _148
REMARK   61  A    between atoms: _148  and  _149
REMARK   62  A    between atoms: _149  and  _150
REMARK   63  A    between atoms: _152  and  _154
REMARK   64  A    between atoms: _154  and  _155
REMARK   65  A    between atoms: _154  and  _157
REMARK   66  A    between atoms: _157  and  _158
REMARK   67  A    between atoms: _161  and  _163
REMARK   68  A    between atoms: _163  and  _164
REMARK   69  A    between atoms: _163  and  _166
REMARK   70  A    between atoms: _166  and  _167
REMARK   71  A    between atoms: _169  and  _171
REMARK   72  A    between atoms: _171  and  _172
REMARK   73  A    between atoms: _171  and  _174
REMARK   74  A    between atoms: _177  and  _179
REMARK   75  A    between atoms: _179  and  _180
REMARK   76  A    between atoms: _179  and  _182
REMARK   77  A    between atoms: _185  and  _187
REMARK   78  A    between atoms: _187  and  _188
REMARK   79  A    between atoms: _187  and  _190
REMARK   80  A    between atoms: _190  and  _191
REMARK   81  A    between atoms: _195  and  _196
REMARK   82  A    between atoms: _201  and  _203
REMARK   83  A    between atoms: _203  and  _204
REMARK   84  A    between atoms: _203  and  _206
REMARK   85  A    between atoms: _206  and  _207
REMARK   86  A    between atoms: _212  and  _213
REMARK   87  A    between atoms: _215  and  _217
REMARK   88  A    between atoms: _217  and  _218
REMARK   89  A    between atoms: _217  and  _220
REMARK   90  A    between atoms: _220  and  _221
REMARK   91  A    between atoms: _221  and  _222
REMARK   92  A    between atoms: _224  and  _226
REMARK   93  A    between atoms: _226  and  _227
REMARK   94  A    between atoms: _226  and  _229
REMARK   95  A    between atoms: _229  and  _230
REMARK   96  A    between atoms: _230  and  _231
REMARK   97  A    between atoms: _231  and  _232
REMARK   98  A    between atoms: _232  and  _233
REMARK   99  A    between atoms: _237  and  _239
REMARK  100  A    between atoms: _239  and  _240
REMARK  101  A    between atoms: _239  and  _242
REMARK  102  A    between atoms: _242  and  _243
REMARK  103  A    between atoms: _248  and  _250
REMARK  104  A    between atoms: _250  and  _251
REMARK  105  A    between atoms: _253  and  _255
REMARK  106  A    between atoms: _255  and  _256
REMARK  107  A    between atoms: _255  and  _258
REMARK  108  A    between atoms: _258  and  _259
REMARK  109  A    between atoms: _262  and  _264
REMARK  110  A    between atoms: _264  and  _265
REMARK  111  A    between atoms: _264  and  _267
REMARK  112  A    between atoms: _267  and  _268
REMARK  113  A    between atoms: _271  and  _273
REMARK  114  A    between atoms: _273  and  _274
REMARK  115  A    between atoms: _273  and  _276
REMARK  116  A    between atoms: _276  and  _277
REMARK  117  A    between atoms: _277  and  _278
REMARK  118  A    between atoms: _278  and  _279
REMARK  119  A    between atoms: _288  and  _290
REMARK  120  A    between atoms: _290  and  _291
REMARK  121  A    between atoms: _290  and  _293
REMARK  122  A    between atoms: _293  and  _294
REMARK  123  A    between atoms: _299  and  _301
REMARK  124  A    between atoms: _301  and  _302
REMARK  125  A    between atoms: _301  and  _304
REMARK  126  A    between atoms: _304  and  _305
REMARK  127  A    between atoms: _311  and  _313
REMARK  128  A    between atoms: _313  and  _314
REMARK  129  A    between atoms: _313  and  _316
REMARK  130  A    between atoms: _316  and  _317
REMARK  131  A    between atoms: _322  and  _324
REMARK  132  A    between atoms: _324  and  _325
REMARK  133  A    between atoms: _324  and  _327
REMARK  134  A    between atoms: _327  and  _328
REMARK  135  A    between atoms: _331  and  _333
REMARK  136  A    between atoms: _333  and  _334
REMARK  137  A    between atoms: _337  and  _339
REMARK  138  A    between atoms: _339  and  _340
REMARK  139  A    between atoms: _343  and  _345
REMARK  140  A    between atoms: _345  and  _346
REMARK  141  A    between atoms: _345  and  _348
REMARK  142  A    between atoms: _348  and  _349
REMARK  143  A    between atoms: _349  and  _350
REMARK  144  A    between atoms: _350  and  _351
REMARK  145  A    between atoms: _360  and  _362
REMARK  146  A    between atoms: _362  and  _363
REMARK  147  A    between atoms: _362  and  _365
REMARK  148  A    between atoms: _365  and  _366
REMARK  149  A    between atoms: _371  and  _373
REMARK  150  A    between atoms: _373  and  _374
REMARK  151  A    between atoms: _373  and  _376
REMARK  152  A    between atoms: _378  and  _380
REMARK  153  A    between atoms: _380  and  _381
REMARK  154  A    between atoms: _380  and  _383
REMARK  155  A    between atoms: _383  and  _384
REMARK  156  A    between atoms: _384  and  _385
REMARK  157  A    between atoms: _387  and  _389
REMARK  158  A    between atoms: _389  and  _390
REMARK  159  A    between atoms: _389  and  _392
REMARK  160  A    between atoms: _392  and  _393
REMARK  161  A    between atoms: _396  and  _398
REMARK  162  A    between atoms: _398  and  _399
REMARK  163  A    between atoms: _398  and  _401
REMARK  164  A    between atoms: _401  and  _402
REMARK  165  A    between atoms: _405  and  _407
REMARK  166  A    between atoms: _407  and  _408
REMARK  167  A    between atoms: _407  and  _410
REMARK  168  A    between atoms: _410  and  _411
REMARK  169  A    between atoms: _411  and  _412
REMARK  170  A    between atoms: _412  and  _413
REMARK  171  A    between atoms: _413  and  _414
REMARK  172  A    between atoms: _418  and  _420
REMARK  173  A    between atoms: _420  and  _421
REMARK  174  A    between atoms: _420  and  _423
REMARK  175  A    between atoms: _426  and  _428
REMARK  176  A    between atoms: _428  and  _429
REMARK  177  A    between atoms: _432  and  _434
REMARK  178  A    between atoms: _434  and  _435
REMARK  179  A    between atoms: _434  and  _437
REMARK  180  A    between atoms: _437  and  _438
REMARK  181  A    between atoms: _441  and  _443
REMARK  182  A    between atoms: _443  and  _444
REMARK  183  A    between atoms: _443  and  _446
REMARK  184  A    between atoms: _446  and  _447
REMARK  185  A    between atoms: _453  and  _455
REMARK  186  A    between atoms: _455  and  _456
REMARK  187  A    between atoms: _455  and  _458
REMARK  188  A    between atoms: _458  and  _459
REMARK  189  A    between atoms: _462  and  _464
REMARK  190  A    between atoms: _464  and  _465
REMARK  191  A    between atoms: _468  and  _470
REMARK  192  A    between atoms: _470  and  _471
REMARK  193  A    between atoms: _470  and  _473
REMARK  194  A    between atoms: _473  and  _474
REMARK  195  A    between atoms: _474  and  _475
REMARK  196  A    between atoms: _475  and  _476
REMARK  197  A    between atoms: _485  and  _487
REMARK  198  A    between atoms: _487  and  _488
REMARK  199  A    between atoms: _487  and  _490
REMARK  200  A    between atoms: _490  and  _491
REMARK  201  A    between atoms: _494  and  _496
REMARK  202  A    between atoms: _496  and  _497
REMARK  203  A    between atoms: _496  and  _499
REMARK  204  A    between atoms: _499  and  _500
REMARK  205  A    between atoms: _500  and  _501
REMARK  206  A    between atoms: _503  and  _505
REMARK  207  A    between atoms: _505  and  _506
REMARK  208  A    between atoms: _505  and  _508
REMARK  209  A    between atoms: _508  and  _509
REMARK  210  A    between atoms: _514  and  _515
REMARK  211  A    between atoms: _517  and  _519
REMARK  212  A    between atoms: _519  and  _520
REMARK  213  A    between atoms: _519  and  _522
REMARK  214  A    between atoms: _522  and  _523
REMARK  215  A    between atoms: _526  and  _528
REMARK  216  A    between atoms: _528  and  _529
REMARK  217  A    between atoms: _528  and  _531
REMARK  218  A    between atoms: _531  and  _532
REMARK  219  A    between atoms: _532  and  _533
REMARK  220  A    between atoms: _533  and  _534
REMARK  221  A    between atoms: _534  and  _535
REMARK  222  A    between atoms: _539  and  _541
REMARK  223  A    between atoms: _541  and  _542
REMARK  224  A    between atoms: _541  and  _544
REMARK  225  A    between atoms: _544  and  _545
REMARK  226  A    between atoms: _550  and  _551
REMARK                            x       y       z     vdW  Elec       q    Type
REMARK                         _______ _______ _______ _____ _____    ______ ____
ROOT
ATOM      1  CA  VAL A   4      21.657  93.580   6.209  0.00  0.00    +0.149 C 
ENDROOT
BRANCH   1   2
ATOM      2  C   VAL A   4      20.292  93.126   5.693  0.00  0.00    +0.241 C 
ATOM      3  N   LYS A   5      19.407  92.772   6.615  0.00  0.00    -0.297 N 
ATOM      4  H   LYS A   5      19.670  92.811   7.620  0.00  0.00    +0.150 HD
ATOM      5  O   VAL A   4      20.051  93.080   4.487  0.00  0.00    -0.273 OA
BRANCH   3   6
ATOM      6  CA  LYS A   5      18.072  92.329   6.240  0.00  0.00    +0.149 C 
BRANCH   6   7
ATOM      7  C   LYS A   5      17.112  93.515   6.240  0.00  0.00    +0.241 C 
ATOM      8  O   LYS A   5      16.981  94.225   7.238  0.00  0.00    -0.273 OA
ATOM      9  N   SER A   6      16.456  93.728   5.106  0.00  0.00    -0.296 N 
ATOM     10  H   SER A   6      16.670  93.133   4.280  0.00  0.00    +0.150 HD
BRANCH   9  11
ATOM     11  CA  SER A   6      15.446  94.768   4.983  0.00  0.00    +0.166 C 
BRANCH  11  12
ATOM     12  CB  SER A   6      14.097  94.260   5.476  0.00  0.00    +0.229 C 
ATOM     13  OG  SER A   6      13.802  93.065   5.393  0.00  0.00    -0.286 OA
ENDBRANCH  11  12
BRANCH  11  14
ATOM     14  C   SER A   6      15.323  95.204   3.524  0.00  0.00    +0.165 C 
BRANCH  14  15
ATOM     15  O   SER A   6      14.305  96.173   3.373  0.00  0.00    -0.380 OA
ATOM     16  H   SER A   6      14.244  96.440   2.422  0.00  0.00    +0.211 HD
ENDBRANCH  14  15
ENDBRANCH  11  14
ENDBRANCH   9  11
ENDBRANCH   6   7
BRANCH   6  17
ATOM     17  CB  LYS A   5      17.579  91.245   7.206  0.00  0.00    +0.029 C 
BRANCH  17  18
ATOM     18  CG  LYS A   5      16.133  90.807   6.993  0.00  0.00    +0.000 C 
BRANCH  18  19
ATOM     19  CD  LYS A   5      15.879  90.327   5.562  0.00  0.00    -0.024 C 
BRANCH  19  20
ATOM     20  CE  LYS A   5      14.803  89.240   5.509  0.00  0.00    -0.086 C 
BRANCH  20  21
ATOM     21  NZ  LYS A   5      13.584  89.611   6.266  0.00  0.00    +0.380 N 
ATOM     22  HZ1 LYS A   5      13.832  89.769   7.264  0.00  0.00    -0.089 HD
ATOM     23  HZ2 LYS A   5      12.888  88.842   6.198  0.00  0.00    -0.089 HD
ATOM     24  HZ3 LYS A   5      13.180  90.482   5.866  0.00  0.00    -0.089 HD
ENDBRANCH  20  21
ENDBRANCH  19  20
ENDBRANCH  18  19
ENDBRANCH  17  18
ENDBRANCH   6  17
ENDBRANCH   3   6
ENDBRANCH   1   2
BRANCH   1  27
ATOM     25  C   ALA A   3      23.200  91.780   6.689  0.00  0.00    +0.241 C 
ATOM     26  O   ALA A   3      22.843  91.709   7.864  0.00  0.00    -0.273 OA
ATOM     27  N   VAL A   4      22.661  92.615   5.814  0.00  0.00    -0.297 N 
ATOM     28  H   VAL A   4      22.966  92.577   4.820  0.00  0.00    +0.150 HD
BRANCH  25  29
ATOM     29  CA  ALA A   3      24.303  90.891   6.158  0.00  0.00    +0.149 C 
ATOM     30  CB  ALA A   3      23.835  89.444   6.151  0.00  0.00    +0.031 C 
BRANCH  29  32
ATOM     31  C   CYS A   2      26.556  91.683   6.636  0.00  0.00    +0.242 C 
ATOM     32  N   ALA A   3      25.460  91.045   7.025  0.00  0.00    -0.297 N 
ATOM     33  H   ALA A   3      25.427  90.641   7.983  0.00  0.00    +0.150 HD
ATOM     34  O   CYS A   2      26.712  92.122   5.498  0.00  0.00    -0.273 OA
BRANCH  31  35
ATOM     35  CA  CYS A   2      27.643  91.820   7.693  0.00  0.00    +0.160 C 
BRANCH  35  38
ATOM     36  C   HIS A   1      30.049  91.954   7.728  0.00  0.00    +0.239 C 
ATOM     37  O   HIS A   1      30.093  91.193   8.693  0.00  0.00    -0.274 OA
ATOM     38  N   CYS A   2      28.903  92.321   7.168  0.00  0.00    -0.296 N 
ATOM     39  H   CYS A   2      28.906  92.967   6.353  0.00  0.00    +0.150 HD
BRANCH  36  40
ATOM     40  CA  HIS A   1      31.331  92.535   7.134  0.00  0.00    +0.151 C 
BRANCH  40  41
ATOM     41  N   HIS A   1      32.176  92.973   8.240  0.00  0.00    -0.238 NA
ATOM     42  H   HIS A   1      33.030  92.428   8.475  0.00  0.00    +0.142 HD
ENDBRANCH  40  41
BRANCH  40  43
ATOM     43  CB  HIS A   1      32.064  91.468   6.312  0.00  0.00    +0.074 C 
BRANCH  43  44
ATOM     44  CG  HIS A   1      31.396  91.129   5.015  0.00  0.00    +0.082 A 
ATOM     45  CD2 HIS A   1      30.173  91.453   4.527  0.00  0.00    +0.115 A 
ATOM     46  NE2 HIS A   1      30.069  90.884   3.281  0.00  0.00    -0.221 NA
ATOM     47  CE1 HIS A   1      31.188  90.233   3.012  0.00  0.00    +0.199 A 
ATOM     48  ND1 HIS A   1      32.005  90.365   4.042  0.00  0.00    -0.227 NA
ENDBRANCH  43  44
ENDBRANCH  40  43
ENDBRANCH  36  40
ENDBRANCH  35  38
BRANCH  35  49
ATOM     49  CB  CYS A   2      27.162  92.717   8.835  0.00  0.00    +0.098 C 
ATOM     50  SG  CYS A   2      26.971  94.453   8.395  0.00  0.00    -0.080 S 
ENDBRANCH  35  49
ENDBRANCH  31  35
ENDBRANCH  29  32
ENDBRANCH  25  29
ENDBRANCH   1  27
BRANCH   1  51
ATOM     51  CB  VAL A   4      22.007  94.971   5.642  0.00  0.00    +0.027 C 
ATOM     52  CG2 VAL A   4      23.396  95.388   6.134  0.00  0.00    +0.002 C 
ATOM     53  CG1 VAL A   4      20.952  95.992   6.053  0.00  0.00    +0.002 C 
ENDBRANCH   1  51
TORSDOF 23
REMARK  Name = ../refined-set-2016/3zc5/3zc5_pocket.pdb
REMARK  226 active torsions:
REMARK  status: ('A' for Active; 'I' for Inactive)
REMARK    1  A    between atoms: _1  and  _3
REMARK    2  A    between atoms: _3  and  _4
REMARK    3  A    between atoms: _3  and  _6
REMARK    4  A    between atoms: _9  and  _11
REMARK    5  A    between atoms: _11  and  _12
REMARK    6  A    between atoms: _11  and  _14
REMARK    7  A    between atoms: _14  and  _15
REMARK    8  A    between atoms: _18  and  _20
REMARK    9  A    between atoms: _20  and  _21
REMARK   10  A    between atoms: _23  and  _25
REMARK   11  A    between atoms: _25  and  _26
REMARK   12  A    between atoms: _25  and  _28
REMARK   13  A    between atoms: _28  and  _29
REMARK   14  A    between atoms: _29  and  _30
REMARK   15  A    between atoms: _30  and  _31
REMARK   16  A    between atoms: _40  and  _42
REMARK   17  A    between atoms: _42  and  _43
REMARK   18  A    between atoms: _45  and  _47
REMARK   19  A    between atoms: _47  and  _48
REMARK   20  A    between atoms: _47  and  _50
REMARK   21  A    between atoms: _52  and  _54
REMARK   22  A    between atoms: _54  and  _55
REMARK   23  A    between atoms: _54  and  _57
REMARK   24  A    between atoms: _60  and  _62
REMARK   25  A    between atoms: _62  and  _63
REMARK   26  A    between atoms: _62  and  _65
REMARK   27  A    between atoms: _65  and  _66
REMARK   28  A    between atoms: _71  and  _72
REMARK   29  A    between atoms: _74  and  _76
REMARK   30  A    between atoms: _76  and  _77
REMARK   31  A    between atoms: _76  and  _79
REMARK   32  A    between atoms: _79  and  _80
REMARK   33  A    between atoms: _85  and  _87
REMARK   34  A    between atoms: _87  and  _88
REMARK   35  A    between atoms: _90  and  _92
REMARK   36  A    between atoms: _92  and  _93
REMARK   37  A    between atoms: _92  and  _95
REMARK   38  A    between atoms: _95  and  _96
REMARK   39  A    between atoms: _101  and  _103
REMARK   40  A    between atoms: _103  and  _104
REMARK   41  A    between atoms: _103  and  _106
REMARK   42  A    between atoms: _108  and  _110
REMARK   43  A    between atoms: _110  and  _111
REMARK   44  A    between atoms: _114  and  _116
REMARK   45  A    between atoms: _116  and  _117
REMARK   46  A    between atoms: _116  and  _119
REMARK   47  A    between atoms: _122  and  _124
REMARK   48  A    between atoms: _124  and  _125
REMARK   49  A    between atoms: _124  and  _127
REMARK   50  A    between atoms: _127  and  _128
REMARK   51  A    between atoms: _128  and  _129
REMARK   52  A    between atoms: _129  and  _130
REMARK   53  A    between atoms: _130  and  _131
REMARK   54  A    between atoms: _135  and  _137
REMARK   55  A    between atoms: _137  and  _138
REMARK   56  A    between atoms: _137  and  _140
REMARK   57  A    between atoms: _140  and  _141
REMARK   58  A    between atoms: _143  and  _145
REMARK   59  A    between atoms: _145  and  _146
REMARK   60  A    between atoms: _145  and  _148
REMARK   61  A    between atoms: _148  and  _149
REMARK   62  A    between atoms: _149  and  _150
REMARK   63  A    between atoms: _152  and  _154
REMARK   64  A    between atoms: _154  and  _155
REMARK   65  A    between atoms: _154  and  _157
REMARK   66  A    between atoms: _157  and  _158
REMARK   67  A    between atoms: _161  and  _163
REMARK   68  A    between atoms: _163  and  _164
REMARK   69  A    between atoms: _163  and  _166
REMARK   70  A    between atoms: _166  and  _167
REMARK   71  A    between atoms: _169  and  _171
REMARK   72  A    between atoms: _171  and  _172
REMARK   73  A    between atoms: _171  and  _174
REMARK   74  A    between atoms: _177  and  _179
REMARK   75  A    between atoms: _179  and  _180
REMARK   76  A    between atoms: _179  and  _182
REMARK   77  A    between atoms: _185  and  _187
REMARK   78  A    between atoms: _187  and  _188
REMARK   79  A    between atoms: _187  and  _190
REMARK   80  A    between atoms: _190  and  _191
REMARK   81  A    between atoms: _195  and  _196
REMARK   82  A    between atoms: _201  and  _203
REMARK   83  A    between atoms: _203  and  _204
REMARK   84  A    between atoms: _203  and  _206
REMARK   85  A    between atoms: _206  and  _207
REMARK   86  A    between atoms: _212  and  _213
REMARK   87  A    between atoms: _215  and  _217
REMARK   88  A    between atoms: _217  and  _218
REMARK   89  A    between atoms: _217  and  _220
REMARK   90  A    between atoms: _220  and  _221
REMARK   91  A    between atoms: _221  and  _222
REMARK   92  A    between atoms: _224  and  _226
REMARK   93  A    between atoms: _226  and  _227
REMARK   94  A    between atoms: _226  and  _229
REMARK   95  A    between atoms: _229  and  _230
REMARK   96  A    between atoms: _230  and  _231
REMARK   97  A    between atoms: _231  and  _232
REMARK   98  A    between atoms: _232  and  _233
REMARK   99  A    between atoms: _237  and  _239
REMARK  100  A    between atoms: _239  and  _240
REMARK  101  A    between atoms: _239  and  _242
REMARK  102  A    between atoms: _242  and  _243
REMARK  103  A    between atoms: _248  and  _250
REMARK  104  A    between atoms: _250  and  _251
REMARK  105  A    between atoms: _253  and  _255
REMARK  106  A    between atoms: _255  and  _256
REMARK  107  A    between atoms: _255  and  _258
REMARK  108  A    between atoms: _258  and  _259
REMARK  109  A    between atoms: _262  and  _264
REMARK  110  A    between atoms: _264  and  _265
REMARK  111  A    between atoms: _264  and  _267
REMARK  112  A    between atoms: _267  and  _268
REMARK  113  A    between atoms: _271  and  _273
REMARK  114  A    between atoms: _273  and  _274
REMARK  115  A    between atoms: _273  and  _276
REMARK  116  A    between atoms: _276  and  _277
REMARK  117  A    between atoms: _277  and  _278
REMARK  118  A    between atoms: _278  and  _279
REMARK  119  A    between atoms: _288  and  _290
REMARK  120  A    between atoms: _290  and  _291
REMARK  121  A    between atoms: _290  and  _293
REMARK  122  A    between atoms: _293  and  _294
REMARK  123  A    between atoms: _299  and  _301
REMARK  124  A    between atoms: _301  and  _302
REMARK  125  A    between atoms: _301  and  _304
REMARK  126  A    between atoms: _304  and  _305
REMARK  127  A    between atoms: _311  and  _313
REMARK  128  A    between atoms: _313  and  _314
REMARK  129  A    between atoms: _313  and  _316
REMARK  130  A    between atoms: _316  and  _317
REMARK  131  A    between atoms: _322  and  _324
REMARK  132  A    between atoms: _324  and  _325
REMARK  133  A    between atoms: _324  and  _327
REMARK  134  A    between atoms: _327  and  _328
REMARK  135  A    between atoms: _331  and  _333
REMARK  136  A    between atoms: _333  and  _334
REMARK  137  A    between atoms: _337  and  _339
REMARK  138  A    between atoms: _339  and  _340
REMARK  139  A    between atoms: _343  and  _345
REMARK  140  A    between atoms: _345  and  _346
REMARK  141  A    between atoms: _345  and  _348
REMARK  142  A    between atoms: _348  and  _349
REMARK  143  A    between atoms: _349  and  _350
REMARK  144  A    between atoms: _350  and  _351
REMARK  145  A    between atoms: _360  and  _362
REMARK  146  A    between atoms: _362  and  _363
REMARK  147  A    between atoms: _362  and  _365
REMARK  148  A    between atoms: _365  and  _366
REMARK  149  A    between atoms: _371  and  _373
REMARK  150  A    between atoms: _373  and  _374
REMARK  151  A    between atoms: _373  and  _376
REMARK  152  A    between atoms: _378  and  _380
REMARK  153  A    between atoms: _380  and  _381
REMARK  154  A    between atoms: _380  and  _383
REMARK  155  A    between atoms: _383  and  _384
REMARK  156  A    between atoms: _384  and  _385
REMARK  157  A    between atoms: _387  and  _389
REMARK  158  A    between atoms: _389  and  _390
REMARK  159  A    between atoms: _389  and  _392
REMARK  160  A    between atoms: _392  and  _393
REMARK  161  A    between atoms: _396  and  _398
REMARK  162  A    between atoms: _398  and  _399
REMARK  163  A    between atoms: _398  and  _401
REMARK  164  A    between atoms: _401  and  _402
REMARK  165  A    between atoms: _405  and  _407
REMARK  166  A    between atoms: _407  and  _408
REMARK  167  A    between atoms: _407  and  _410
REMARK  168  A    between atoms: _410  and  _411
REMARK  169  A    between atoms: _411  and  _412
REMARK  170  A    between atoms: _412  and  _413
REMARK  171  A    between atoms: _413  and  _414
REMARK  172  A    between atoms: _418  and  _420
REMARK  173  A    between atoms: _420  and  _421
REMARK  174  A    between atoms: _420  and  _423
REMARK  175  A    between atoms: _426  and  _428
REMARK  176  A    between atoms: _428  and  _429
REMARK  177  A    between atoms: _432  and  _434
REMARK  178  A    between atoms: _434  and  _435
REMARK  179  A    between atoms: _434  and  _437
REMARK  180  A    between atoms: _437  and  _438
REMARK  181  A    between atoms: _441  and  _443
REMARK  182  A    between atoms: _443  and  _444
REMARK  183  A    between atoms: _443  and  _446
REMARK  184  A    between atoms: _446  and  _447
REMARK  185  A    between atoms: _453  and  _455
REMARK  186  A    between atoms: _455  and  _456
REMARK  187  A    between atoms: _455  and  _458
REMARK  188  A    between atoms: _458  and  _459
REMARK  189  A    between atoms: _462  and  _464
REMARK  190  A    between atoms: _464  and  _465
REMARK  191  A    between atoms: _468  and  _470
REMARK  192  A    between atoms: _470  and  _471
REMARK  193  A    between atoms: _470  and  _473
REMARK  194  A    between atoms: _473  and  _474
REMARK  195  A    between atoms: _474  and  _475
REMARK  196  A    between atoms: _475  and  _476
REMARK  197  A    between atoms: _485  and  _487
REMARK  198  A    between atoms: _487  and  _488
REMARK  199  A    between atoms: _487  and  _490
REMARK  200  A    between atoms: _490  and  _491
REMARK  201  A    between atoms: _494  and  _496
REMARK  202  A    between atoms: _496  and  _497
REMARK  203  A    between atoms: _496  and  _499
REMARK  204  A    between atoms: _499  and  _500
REMARK  205  A    between atoms: _500  and  _501
REMARK  206  A    between atoms: _503  and  _505
REMARK  207  A    between atoms: _505  and  _506
REMARK  208  A    between atoms: _505  and  _508
REMARK  209  A    between atoms: _508  and  _509
REMARK  210  A    between atoms: _514  and  _515
REMARK  211  A    between atoms: _517  and  _519
REMARK  212  A    between atoms: _519  and  _520
REMARK  213  A    between atoms: _519  and  _522
REMARK  214  A    between atoms: _522  and  _523
REMARK  215  A    between atoms: _526  and  _528
REMARK  216  A    between atoms: _528  and  _529
REMARK  217  A    between atoms: _528  and  _531
REMARK  218  A    between atoms: _531  and  _532
REMARK  219  A    between atoms: _532  and  _533
REMARK  220  A    between atoms: _533  and  _534
REMARK  221  A    between atoms: _534  and  _535
REMARK  222  A    between atoms: _539  and  _541
REMARK  223  A    between atoms: _541  and  _542
REMARK  224  A    between atoms: _541  and  _544
REMARK  225  A    between atoms: _544  and  _545
REMARK  226  A    between atoms: _550  and  _551
REMARK                            x       y       z     vdW  Elec       q    Type
REMARK                         _______ _______ _______ _____ _____    ______ ____
ROOT
ATOM      1  CA  MET A   1      17.148  87.183  20.139  0.00  0.00    +0.134 C 
ENDROOT
BRANCH   1   2
ATOM      2  N   MET A   1      15.980  87.626  20.890  0.00  0.00    -0.239 NA
ATOM      3  H   MET A   1      15.134  87.908  20.355  0.00  0.00    +0.142 HD
ENDBRANCH   1   2
BRANCH   1   4
ATOM      4  C   MET A   1      18.473  87.741  20.677  0.00  0.00    +0.224 C 
ATOM      5  O   MET A   1      19.498  87.054  20.655  0.00  0.00    -0.287 OA
ENDBRANCH   1   4
BRANCH   1   6
ATOM      6  CB  MET A   1      16.961  87.600  18.680  0.00  0.00    +0.037 C 
BRANCH   6   7
ATOM      7  CG  MET A   1      18.070  87.221  17.748  0.00  0.00    +0.059 C 
BRANCH   7   8
ATOM      8  SD  MET A   1      17.684  87.844  16.111  0.00  0.00    -0.139 S 
ATOM      9  CE  MET A   1      18.531  86.621  15.093  0.00  0.00    +0.069 C 
ENDBRANCH   7   8
ENDBRANCH   6   7
ENDBRANCH   1   6
TORSDOF 5
REMARK  Name = ../refined-set-2016/3zc5/3zc5_pocket.pdb
REMARK  226 active torsions:
REMARK  status: ('A' for Active; 'I' for Inactive)
REMARK    1  A    between atoms: _1  and  _3
REMARK    2  A    between atoms: _3  and  _4
REMARK    3  A    between atoms: _3  and  _6
REMARK    4  A    between atoms: _9  and  _11
REMARK    5  A    between atoms: _11  and  _12
REMARK    6  A    between atoms: _11  and  _14
REMARK    7  A    between atoms: _14  and  _15
REMARK    8  A    between atoms: _18  and  _20
REMARK    9  A    between atoms: _20  and  _21
REMARK   10  A    between atoms: _23  and  _25
REMARK   11  A    between atoms: _25  and  _26
REMARK   12  A    between atoms: _25  and  _28
REMARK   13  A    between atoms: _28  and  _29
REMARK   14  A    between atoms: _29  and  _30
REMARK   15  A    between atoms: _30  and  _31
REMARK   16  A    between atoms: _40  and  _42
REMARK   17  A    between atoms: _42  and  _43
REMARK   18  A    between atoms: _45  and  _47
REMARK   19  A    between atoms: _47  and  _48
REMARK   20  A    between atoms: _47  and  _50
REMARK   21  A    between atoms: _52  and  _54
REMARK   22  A    between atoms: _54  and  _55
REMARK   23  A    between atoms: _54  and  _57
REMARK   24  A    between atoms: _60  and  _62
REMARK   25  A    between atoms: _62  and  _63
REMARK   26  A    between atoms: _62  and  _65
REMARK   27  A    between atoms: _65  and  _66
REMARK   28  A    between atoms: _71  and  _72
REMARK   29  A    between atoms: _74  and  _76
REMARK   30  A    between atoms: _76  and  _77
REMARK   31  A    between atoms: _76  and  _79
REMARK   32  A    between atoms: _79  and  _80
REMARK   33  A    between atoms: _85  and  _87
REMARK   34  A    between atoms: _87  and  _88
REMARK   35  A    between atoms: _90  and  _92
REMARK   36  A    between atoms: _92  and  _93
REMARK   37  A    between atoms: _92  and  _95
REMARK   38  A    between atoms: _95  and  _96
REMARK   39  A    between atoms: _101  and  _103
REMARK   40  A    between atoms: _103  and  _104
REMARK   41  A    between atoms: _103  and  _106
REMARK   42  A    between atoms: _108  and  _110
REMARK   43  A    between atoms: _110  and  _111
REMARK   44  A    between atoms: _114  and  _116
REMARK   45  A    between atoms: _116  and  _117
REMARK   46  A    between atoms: _116  and  _119
REMARK   47  A    between atoms: _122  and  _124
REMARK   48  A    between atoms: _124  and  _125
REMARK   49  A    between atoms: _124  and  _127
REMARK   50  A    between atoms: _127  and  _128
REMARK   51  A    between atoms: _128  and  _129
REMARK   52  A    between atoms: _129  and  _130
REMARK   53  A    between atoms: _130  and  _131
REMARK   54  A    between atoms: _135  and  _137
REMARK   55  A    between atoms: _137  and  _138
REMARK   56  A    between atoms: _137  and  _140
REMARK   57  A    between atoms: _140  and  _141
REMARK   58  A    between atoms: _143  and  _145
REMARK   59  A    between atoms: _145  and  _146
REMARK   60  A    between atoms: _145  and  _148
REMARK   61  A    between atoms: _148  and  _149
REMARK   62  A    between atoms: _149  and  _150
REMARK   63  A    between atoms: _152  and  _154
REMARK   64  A    between atoms: _154  and  _155
REMARK   65  A    between atoms: _154  and  _157
REMARK   66  A    between atoms: _157  and  _158
REMARK   67  A    between atoms: _161  and  _163
REMARK   68  A    between atoms: _163  and  _164
REMARK   69  A    between atoms: _163  and  _166
REMARK   70  A    between atoms: _166  and  _167
REMARK   71  A    between atoms: _169  and  _171
REMARK   72  A    between atoms: _171  and  _172
REMARK   73  A    between atoms: _171  and  _174
REMARK   74  A    between atoms: _177  and  _179
REMARK   75  A    between atoms: _179  and  _180
REMARK   76  A    between atoms: _179  and  _182
REMARK   77  A    between atoms: _185  and  _187
REMARK   78  A    between atoms: _187  and  _188
REMARK   79  A    between atoms: _187  and  _190
REMARK   80  A    between atoms: _190  and  _191
REMARK   81  A    between atoms: _195  and  _196
REMARK   82  A    between atoms: _201  and  _203
REMARK   83  A    between atoms: _203  and  _204
REMARK   84  A    between atoms: _203  and  _206
REMARK   85  A    between atoms: _206  and  _207
REMARK   86  A    between atoms: _212  and  _213
REMARK   87  A    between atoms: _215  and  _217
REMARK   88  A    between atoms: _217  and  _218
REMARK   89  A    between atoms: _217  and  _220
REMARK   90  A    between atoms: _220  and  _221
REMARK   91  A    between atoms: _221  and  _222
REMARK   92  A    between atoms: _224  and  _226
REMARK   93  A    between atoms: _226  and  _227
REMARK   94  A    between atoms: _226  and  _229
REMARK   95  A    between atoms: _229  and  _230
REMARK   96  A    between atoms: _230  and  _231
REMARK   97  A    between atoms: _231  and  _232
REMARK   98  A    between atoms: _232  and  _233
REMARK   99  A    between atoms: _237  and  _239
REMARK  100  A    between atoms: _239  and  _240
REMARK  101  A    between atoms: _239  and  _242
REMARK  102  A    between atoms: _242  and  _243
REMARK  103  A    between atoms: _248  and  _250
REMARK  104  A    between atoms: _250  and  _251
REMARK  105  A    between atoms: _253  and  _255
REMARK  106  A    between atoms: _255  and  _256
REMARK  107  A    between atoms: _255  and  _258
REMARK  108  A    between atoms: _258  and  _259
REMARK  109  A    between atoms: _262  and  _264
REMARK  110  A    between atoms: _264  and  _265
REMARK  111  A    between atoms: _264  and  _267
REMARK  112  A    between atoms: _267  and  _268
REMARK  113  A    between atoms: _271  and  _273
REMARK  114  A    between atoms: _273  and  _274
REMARK  115  A    between atoms: _273  and  _276
REMARK  116  A    between atoms: _276  and  _277
REMARK  117  A    between atoms: _277  and  _278
REMARK  118  A    between atoms: _278  and  _279
REMARK  119  A    between atoms: _288  and  _290
REMARK  120  A    between atoms: _290  and  _291
REMARK  121  A    between atoms: _290  and  _293
REMARK  122  A    between atoms: _293  and  _294
REMARK  123  A    between atoms: _299  and  _301
REMARK  124  A    between atoms: _301  and  _302
REMARK  125  A    between atoms: _301  and  _304
REMARK  126  A    between atoms: _304  and  _305
REMARK  127  A    between atoms: _311  and  _313
REMARK  128  A    between atoms: _313  and  _314
REMARK  129  A    between atoms: _313  and  _316
REMARK  130  A    between atoms: _316  and  _317
REMARK  131  A    between atoms: _322  and  _324
REMARK  132  A    between atoms: _324  and  _325
REMARK  133  A    between atoms: _324  and  _327
REMARK  134  A    between atoms: _327  and  _328
REMARK  135  A    between atoms: _331  and  _333
REMARK  136  A    between atoms: _333  and  _334
REMARK  137  A    between atoms: _337  and  _339
REMARK  138  A    between atoms: _339  and  _340
REMARK  139  A    between atoms: _343  and  _345
REMARK  140  A    between atoms: _345  and  _346
REMARK  141  A    between atoms: _345  and  _348
REMARK  142  A    between atoms: _348  and  _349
REMARK  143  A    between atoms: _349  and  _350
REMARK  144  A    between atoms: _350  and  _351
REMARK  145  A    between atoms: _360  and  _362
REMARK  146  A    between atoms: _362  and  _363
REMARK  147  A    between atoms: _362  and  _365
REMARK  148  A    between atoms: _365  and  _366
REMARK  149  A    between atoms: _371  and  _373
REMARK  150  A    between atoms: _373  and  _374
REMARK  151  A    between atoms: _373  and  _376
REMARK  152  A    between atoms: _378  and  _380
REMARK  153  A    between atoms: _380  and  _381
REMARK  154  A    between atoms: _380  and  _383
REMARK  155  A    between atoms: _383  and  _384
REMARK  156  A    between atoms: _384  and  _385
REMARK  157  A    between atoms: _387  and  _389
REMARK  158  A    between atoms: _389  and  _390
REMARK  159  A    between atoms: _389  and  _392
REMARK  160  A    between atoms: _392  and  _393
REMARK  161  A    between atoms: _396  and  _398
REMARK  162  A    between atoms: _398  and  _399
REMARK  163  A    between atoms: _398  and  _401
REMARK  164  A    between atoms: _401  and  _402
REMARK  165  A    between atoms: _405  and  _407
REMARK  166  A    between atoms: _407  and  _408
REMARK  167  A    between atoms: _407  and  _410
REMARK  168  A    between atoms: _410  and  _411
REMARK  169  A    between atoms: _411  and  _412
REMARK  170  A    between atoms: _412  and  _413
REMARK  171  A    between atoms: _413  and  _414
REMARK  172  A    between atoms: _418  and  _420
REMARK  173  A    between atoms: _420  and  _421
REMARK  174  A    between atoms: _420  and  _423
REMARK  175  A    between atoms: _426  and  _428
REMARK  176  A    between atoms: _428  and  _429
REMARK  177  A    between atoms: _432  and  _434
REMARK  178  A    between atoms: _434  and  _435
REMARK  179  A    between atoms: _434  and  _437
REMARK  180  A    between atoms: _437  and  _438
REMARK  181  A    between atoms: _441  and  _443
REMARK  182  A    between atoms: _443  and  _444
REMARK  183  A    between atoms: _443  and  _446
REMARK  184  A    between atoms: _446  and  _447
REMARK  185  A    between atoms: _453  and  _455
REMARK  186  A    between atoms: _455  and  _456
REMARK  187  A    between atoms: _455  and  _458
REMARK  188  A    between atoms: _458  and  _459
REMARK  189  A    between atoms: _462  and  _464
REMARK  190  A    between atoms: _464  and  _465
REMARK  191  A    between atoms: _468  and  _470
REMARK  192  A    between atoms: _470  and  _471
REMARK  193  A    between atoms: _470  and  _473
REMARK  194  A    between atoms: _473  and  _474
REMARK  195  A    between atoms: _474  and  _475
REMARK  196  A    between atoms: _475  and  _476
REMARK  197  A    between atoms: _485  and  _487
REMARK  198  A    between atoms: _487  and  _488
REMARK  199  A    between atoms: _487  and  _490
REMARK  200  A    between atoms: _490  and  _491
REMARK  201  A    between atoms: _494  and  _496
REMARK  202  A    between atoms: _496  and  _497
REMARK  203  A    between atoms: _496  and  _499
REMARK  204  A    between atoms: _499  and  _500
REMARK  205  A    between atoms: _500  and  _501
REMARK  206  A    between atoms: _503  and  _505
REMARK  207  A    between atoms: _505  and  _506
REMARK  208  A    between atoms: _505  and  _508
REMARK  209  A    between atoms: _508  and  _509
REMARK  210  A    between atoms: _514  and  _515
REMARK  211  A    between atoms: _517  and  _519
REMARK  212  A    between atoms: _519  and  _520
REMARK  213  A    between atoms: _519  and  _522
REMARK  214  A    between atoms: _522  and  _523
REMARK  215  A    between atoms: _526  and  _528
REMARK  216  A    between atoms: _528  and  _529
REMARK  217  A    between atoms: _528  and  _531
REMARK  218  A    between atoms: _531  and  _532
REMARK  219  A    between atoms: _532  and  _533
REMARK  220  A    between atoms: _533  and  _534
REMARK  221  A    between atoms: _534  and  _535
REMARK  222  A    between atoms: _539  and  _541
REMARK  223  A    between atoms: _541  and  _542
REMARK  224  A    between atoms: _541  and  _544
REMARK  225  A    between atoms: _544  and  _545
REMARK  226  A    between atoms: _550  and  _551
REMARK                            x       y       z     vdW  Elec       q    Type
REMARK                         _______ _______ _______ _____ _____    ______ ____
ROOT
ATOM      1  C   LEU A   1      22.503  84.137  15.644  0.00  0.00    +0.238 C 
ATOM      2  O   LEU A   1      21.457  84.222  16.290  0.00  0.00    -0.274 OA
ATOM      3  N   SER A   2      23.477  85.034  15.741  0.00  0.00    -0.296 N 
ATOM      4  H   SER A   2      24.329  84.938  15.153  0.00  0.00    +0.150 HD
ENDROOT
BRANCH   1   5
ATOM      5  CA  LEU A   1      22.740  82.976  14.682  0.00  0.00    +0.145 C 
BRANCH   5   6
ATOM      6  N   LEU A   1      22.412  81.707  15.319  0.00  0.00    -0.238 NA
ATOM      7  H   LEU A   1      21.613  81.146  14.960  0.00  0.00    +0.142 HD
ENDBRANCH   5   6
BRANCH   5   8
ATOM      8  CB  LEU A   1      21.891  83.181  13.425  0.00  0.00    +0.026 C 
BRANCH   8   9
ATOM      9  CG  LEU A   1      22.230  84.476  12.679  0.00  0.00    +0.002 C 
ATOM     10  CD2 LEU A   1      23.540  84.292  11.928  0.00  0.00    +0.000 C 
ATOM     11  CD1 LEU A   1      21.105  84.842  11.720  0.00  0.00    +0.000 C 
ENDBRANCH   8   9
ENDBRANCH   5   8
ENDBRANCH   1   5
BRANCH   3  12
ATOM     12  CA  SER A   2      23.357  86.150  16.666  0.00  0.00    +0.166 C 
BRANCH  12  13
ATOM     13  CB  SER A   2      22.899  87.419  15.957  0.00  0.00    +0.229 C 
ATOM     14  OG  SER A   2      22.996  87.537  14.736  0.00  0.00    -0.286 OA
ENDBRANCH  12  13
BRANCH  12  15
ATOM     15  C   SER A   2      24.693  86.400  17.365  0.00  0.00    +0.165 C 
BRANCH  15  16
ATOM     16  O   SER A   2      25.637  86.931  16.460  0.00  0.00    -0.380 OA
ATOM     17  H   SER A   2      25.778  86.291  15.718  0.00  0.00    +0.211 HD
ENDBRANCH  15  16
ENDBRANCH  12  15
ENDBRANCH   3  12
TORSDOF 8
REMARK  Name = ../refined-set-2016/3zc5/3zc5_pocket.pdb
REMARK  226 active torsions:
REMARK  status: ('A' for Active; 'I' for Inactive)
REMARK    1  A    between atoms: _1  and  _3
REMARK    2  A    between atoms: _3  and  _4
REMARK    3  A    between atoms: _3  and  _6
REMARK    4  A    between atoms: _9  and  _11
REMARK    5  A    between atoms: _11  and  _12
REMARK    6  A    between atoms: _11  and  _14
REMARK    7  A    between atoms: _14  and  _15
REMARK    8  A    between atoms: _18  and  _20
REMARK    9  A    between atoms: _20  and  _21
REMARK   10  A    between atoms: _23  and  _25
REMARK   11  A    between atoms: _25  and  _26
REMARK   12  A    between atoms: _25  and  _28
REMARK   13  A    between atoms: _28  and  _29
REMARK   14  A    between atoms: _29  and  _30
REMARK   15  A    between atoms: _30  and  _31
REMARK   16  A    between atoms: _40  and  _42
REMARK   17  A    between atoms: _42  and  _43
REMARK   18  A    between atoms: _45  and  _47
REMARK   19  A    between atoms: _47  and  _48
REMARK   20  A    between atoms: _47  and  _50
REMARK   21  A    between atoms: _52  and  _54
REMARK   22  A    between atoms: _54  and  _55
REMARK   23  A    between atoms: _54  and  _57
REMARK   24  A    between atoms: _60  and  _62
REMARK   25  A    between atoms: _62  and  _63
REMARK   26  A    between atoms: _62  and  _65
REMARK   27  A    between atoms: _65  and  _66
REMARK   28  A    between atoms: _71  and  _72
REMARK   29  A    between atoms: _74  and  _76
REMARK   30  A    between atoms: _76  and  _77
REMARK   31  A    between atoms: _76  and  _79
REMARK   32  A    between atoms: _79  and  _80
REMARK   33  A    between atoms: _85  and  _87
REMARK   34  A    between atoms: _87  and  _88
REMARK   35  A    between atoms: _90  and  _92
REMARK   36  A    between atoms: _92  and  _93
REMARK   37  A    between atoms: _92  and  _95
REMARK   38  A    between atoms: _95  and  _96
REMARK   39  A    between atoms: _101  and  _103
REMARK   40  A    between atoms: _103  and  _104
REMARK   41  A    between atoms: _103  and  _106
REMARK   42  A    between atoms: _108  and  _110
REMARK   43  A    between atoms: _110  and  _111
REMARK   44  A    between atoms: _114  and  _116
REMARK   45  A    between atoms: _116  and  _117
REMARK   46  A    between atoms: _116  and  _119
REMARK   47  A    between atoms: _122  and  _124
REMARK   48  A    between atoms: _124  and  _125
REMARK   49  A    between atoms: _124  and  _127
REMARK   50  A    between atoms: _127  and  _128
REMARK   51  A    between atoms: _128  and  _129
REMARK   52  A    between atoms: _129  and  _130
REMARK   53  A    between atoms: _130  and  _131
REMARK   54  A    between atoms: _135  and  _137
REMARK   55  A    between atoms: _137  and  _138
REMARK   56  A    between atoms: _137  and  _140
REMARK   57  A    between atoms: _140  and  _141
REMARK   58  A    between atoms: _143  and  _145
REMARK   59  A    between atoms: _145  and  _146
REMARK   60  A    between atoms: _145  and  _148
REMARK   61  A    between atoms: _148  and  _149
REMARK   62  A    between atoms: _149  and  _150
REMARK   63  A    between atoms: _152  and  _154
REMARK   64  A    between atoms: _154  and  _155
REMARK   65  A    between atoms: _154  and  _157
REMARK   66  A    between atoms: _157  and  _158
REMARK   67  A    between atoms: _161  and  _163
REMARK   68  A    between atoms: _163  and  _164
REMARK   69  A    between atoms: _163  and  _166
REMARK   70  A    between atoms: _166  and  _167
REMARK   71  A    between atoms: _169  and  _171
REMARK   72  A    between atoms: _171  and  _172
REMARK   73  A    between atoms: _171  and  _174
REMARK   74  A    between atoms: _177  and  _179
REMARK   75  A    between atoms: _179  and  _180
REMARK   76  A    between atoms: _179  and  _182
REMARK   77  A    between atoms: _185  and  _187
REMARK   78  A    between atoms: _187  and  _188
REMARK   79  A    between atoms: _187  and  _190
REMARK   80  A    between atoms: _190  and  _191
REMARK   81  A    between atoms: _195  and  _196
REMARK   82  A    between atoms: _201  and  _203
REMARK   83  A    between atoms: _203  and  _204
REMARK   84  A    between atoms: _203  and  _206
REMARK   85  A    between atoms: _206  and  _207
REMARK   86  A    between atoms: _212  and  _213
REMARK   87  A    between atoms: _215  and  _217
REMARK   88  A    between atoms: _217  and  _218
REMARK   89  A    between atoms: _217  and  _220
REMARK   90  A    between atoms: _220  and  _221
REMARK   91  A    between atoms: _221  and  _222
REMARK   92  A    between atoms: _224  and  _226
REMARK   93  A    between atoms: _226  and  _227
REMARK   94  A    between atoms: _226  and  _229
REMARK   95  A    between atoms: _229  and  _230
REMARK   96  A    between atoms: _230  and  _231
REMARK   97  A    between atoms: _231  and  _232
REMARK   98  A    between atoms: _232  and  _233
REMARK   99  A    between atoms: _237  and  _239
REMARK  100  A    between atoms: _239  and  _240
REMARK  101  A    between atoms: _239  and  _242
REMARK  102  A    between atoms: _242  and  _243
REMARK  103  A    between atoms: _248  and  _250
REMARK  104  A    between atoms: _250  and  _251
REMARK  105  A    between atoms: _253  and  _255
REMARK  106  A    between atoms: _255  and  _256
REMARK  107  A    between atoms: _255  and  _258
REMARK  108  A    between atoms: _258  and  _259
REMARK  109  A    between atoms: _262  and  _264
REMARK  110  A    between atoms: _264  and  _265
REMARK  111  A    between atoms: _264  and  _267
REMARK  112  A    between atoms: _267  and  _268
REMARK  113  A    between atoms: _271  and  _273
REMARK  114  A    between atoms: _273  and  _274
REMARK  115  A    between atoms: _273  and  _276
REMARK  116  A    between atoms: _276  and  _277
REMARK  117  A    between atoms: _277  and  _278
REMARK  118  A    between atoms: _278  and  _279
REMARK  119  A    between atoms: _288  and  _290
REMARK  120  A    between atoms: _290  and  _291
REMARK  121  A    between atoms: _290  and  _293
REMARK  122  A    between atoms: _293  and  _294
REMARK  123  A    between atoms: _299  and  _301
REMARK  124  A    between atoms: _301  and  _302
REMARK  125  A    between atoms: _301  and  _304
REMARK  126  A    between atoms: _304  and  _305
REMARK  127  A    between atoms: _311  and  _313
REMARK  128  A    between atoms: _313  and  _314
REMARK  129  A    between atoms: _313  and  _316
REMARK  130  A    between atoms: _316  and  _317
REMARK  131  A    between atoms: _322  and  _324
REMARK  132  A    between atoms: _324  and  _325
REMARK  133  A    between atoms: _324  and  _327
REMARK  134  A    between atoms: _327  and  _328
REMARK  135  A    between atoms: _331  and  _333
REMARK  136  A    between atoms: _333  and  _334
REMARK  137  A    between atoms: _337  and  _339
REMARK  138  A    between atoms: _339  and  _340
REMARK  139  A    between atoms: _343  and  _345
REMARK  140  A    between atoms: _345  and  _346
REMARK  141  A    between atoms: _345  and  _348
REMARK  142  A    between atoms: _348  and  _349
REMARK  143  A    between atoms: _349  and  _350
REMARK  144  A    between atoms: _350  and  _351
REMARK  145  A    between atoms: _360  and  _362
REMARK  146  A    between atoms: _362  and  _363
REMARK  147  A    between atoms: _362  and  _365
REMARK  148  A    between atoms: _365  and  _366
REMARK  149  A    between atoms: _371  and  _373
REMARK  150  A    between atoms: _373  and  _374
REMARK  151  A    between atoms: _373  and  _376
REMARK  152  A    between atoms: _378  and  _380
REMARK  153  A    between atoms: _380  and  _381
REMARK  154  A    between atoms: _380  and  _383
REMARK  155  A    between atoms: _383  and  _384
REMARK  156  A    between atoms: _384  and  _385
REMARK  157  A    between atoms: _387  and  _389
REMARK  158  A    between atoms: _389  and  _390
REMARK  159  A    between atoms: _389  and  _392
REMARK  160  A    between atoms: _392  and  _393
REMARK  161  A    between atoms: _396  and  _398
REMARK  162  A    between atoms: _398  and  _399
REMARK  163  A    between atoms: _398  and  _401
REMARK  164  A    between atoms: _401  and  _402
REMARK  165  A    between atoms: _405  and  _407
REMARK  166  A    between atoms: _407  and  _408
REMARK  167  A    between atoms: _407  and  _410
REMARK  168  A    between atoms: _410  and  _411
REMARK  169  A    between atoms: _411  and  _412
REMARK  170  A    between atoms: _412  and  _413
REMARK  171  A    between atoms: _413  and  _414
REMARK  172  A    between atoms: _418  and  _420
REMARK  173  A    between atoms: _420  and  _421
REMARK  174  A    between atoms: _420  and  _423
REMARK  175  A    between atoms: _426  and  _428
REMARK  176  A    between atoms: _428  and  _429
REMARK  177  A    between atoms: _432  and  _434
REMARK  178  A    between atoms: _434  and  _435
REMARK  179  A    between atoms: _434  and  _437
REMARK  180  A    between atoms: _437  and  _438
REMARK  181  A    between atoms: _441  and  _443
REMARK  182  A    between atoms: _443  and  _444
REMARK  183  A    between atoms: _443  and  _446
REMARK  184  A    between atoms: _446  and  _447
REMARK  185  A    between atoms: _453  and  _455
REMARK  186  A    between atoms: _455  and  _456
REMARK  187  A    between atoms: _455  and  _458
REMARK  188  A    between atoms: _458  and  _459
REMARK  189  A    between atoms: _462  and  _464
REMARK  190  A    between atoms: _464  and  _465
REMARK  191  A    between atoms: _468  and  _470
REMARK  192  A    between atoms: _470  and  _471
REMARK  193  A    between atoms: _470  and  _473
REMARK  194  A    between atoms: _473  and  _474
REMARK  195  A    between atoms: _474  and  _475
REMARK  196  A    between atoms: _475  and  _476
REMARK  197  A    between atoms: _485  and  _487
REMARK  198  A    between atoms: _487  and  _488
REMARK  199  A    between atoms: _487  and  _490
REMARK  200  A    between atoms: _490  and  _491
REMARK  201  A    between atoms: _494  and  _496
REMARK  202  A    between atoms: _496  and  _497
REMARK  203  A    between atoms: _496  and  _499
REMARK  204  A    between atoms: _499  and  _500
REMARK  205  A    between atoms: _500  and  _501
REMARK  206  A    between atoms: _503  and  _505
REMARK  207  A    between atoms: _505  and  _506
REMARK  208  A    between atoms: _505  and  _508
REMARK  209  A    between atoms: _508  and  _509
REMARK  210  A    between atoms: _514  and  _515
REMARK  211  A    between atoms: _517  and  _519
REMARK  212  A    between atoms: _519  and  _520
REMARK  213  A    between atoms: _519  and  _522
REMARK  214  A    between atoms: _522  and  _523
REMARK  215  A    between atoms: _526  and  _528
REMARK  216  A    between atoms: _528  and  _529
REMARK  217  A    between atoms: _528  and  _531
REMARK  218  A    between atoms: _531  and  _532
REMARK  219  A    between atoms: _532  and  _533
REMARK  220  A    between atoms: _533  and  _534
REMARK  221  A    between atoms: _534  and  _535
REMARK  222  A    between atoms: _539  and  _541
REMARK  223  A    between atoms: _541  and  _542
REMARK  224  A    between atoms: _541  and  _544
REMARK  225  A    between atoms: _544  and  _545
REMARK  226  A    between atoms: _550  and  _551
REMARK                            x       y       z     vdW  Elec       q    Type
REMARK                         _______ _______ _______ _____ _____    ______ ____
ROOT
ATOM      1  CA  HIS A   8      28.848  79.740   2.810  0.00  0.00    +0.155 C 
ENDROOT
BRANCH   1   3
ATOM      2  C   LYS A   7      29.741  81.961   3.048  0.00  0.00    +0.241 C 
ATOM      3  N   HIS A   8      29.213  80.891   3.626  0.00  0.00    -0.297 N 
ATOM      4  H   HIS A   8      29.060  80.873   4.655  0.00  0.00    +0.150 HD
ATOM      5  O   LYS A   7      29.848  82.052   1.827  0.00  0.00    -0.273 OA
BRANCH   2   6
ATOM      6  CA  LYS A   7      30.223  83.092   3.959  0.00  0.00    +0.149 C 
BRANCH   6   8
ATOM      7  C   MET A   6      28.136  83.477   5.164  0.00  0.00    +0.241 C 
ATOM      8  N   LYS A   7      29.443  83.238   5.182  0.00  0.00    -0.297 N 
ATOM      9  H   LYS A   7      29.926  83.152   6.099  0.00  0.00    +0.150 HD
ATOM     10  O   MET A   6      27.448  83.395   4.142  0.00  0.00    -0.273 OA
BRANCH   7  11
ATOM     11  CA  MET A   6      27.515  83.859   6.504  0.00  0.00    +0.149 C 
BRANCH  11  14
ATOM     12  C   TYR A   5      28.030  86.087   7.313  0.00  0.00    +0.241 C 
ATOM     13  O   TYR A   5      28.939  85.660   8.019  0.00  0.00    -0.273 OA
ATOM     14  N   MET A   6      27.281  85.294   6.556  0.00  0.00    -0.297 N 
ATOM     15  H   MET A   6      26.513  85.706   5.990  0.00  0.00    +0.150 HD
BRANCH  12  16
ATOM     16  CA  TYR A   5      27.695  87.577   7.283  0.00  0.00    +0.153 C 
BRANCH  16  19
ATOM     17  C   PRO A   4      26.604  87.888   9.424  0.00  0.00    +0.241 C 
ATOM     18  O   PRO A   4      25.579  87.342   9.028  0.00  0.00    -0.273 OA
ATOM     19  N   TYR A   5      27.658  88.089   8.646  0.00  0.00    -0.297 N 
ATOM     20  H   TYR A   5      28.472  88.621   9.015  0.00  0.00    +0.150 HD
BRANCH  17  26
ATOM     21  C   LEU A   3      24.673  89.692  10.723  0.00  0.00    +0.244 C 
ATOM     22  N   PRO A   4      25.375  88.736  11.352  0.00  0.00    -0.272 N 
ATOM     23  CD  PRO A   4      24.952  87.888  12.482  0.00  0.00    +0.094 C 
ATOM     24  CG  PRO A   4      26.257  87.356  13.009  0.00  0.00    +0.024 C 
ATOM     25  CB  PRO A   4      27.167  87.259  11.804  0.00  0.00    +0.031 C 
ATOM     26  CA  PRO A   4      26.712  88.379  10.862  0.00  0.00    +0.152 C 
ATOM     27  O   LEU A   3      25.136  90.325   9.771  0.00  0.00    -0.273 OA
BRANCH  21  28
ATOM     28  CA  LEU A   3      23.268  89.984  11.239  0.00  0.00    +0.149 C 
BRANCH  28  31
ATOM     29  C   VAL A   2      22.434  92.237  11.576  0.00  0.00    +0.241 C 
ATOM     30  O   VAL A   2      22.435  92.106  12.804  0.00  0.00    -0.273 OA
ATOM     31  N   LEU A   3      22.817  91.276  10.743  0.00  0.00    -0.297 N 
ATOM     32  H   LEU A   3      22.794  91.450   9.718  0.00  0.00    +0.150 HD
BRANCH  29  33
ATOM     33  CA  VAL A   2      21.983  93.537  10.929  0.00  0.00    +0.148 C 
BRANCH  33  35
ATOM     34  C   VAL A   1      19.603  93.710  10.443  0.00  0.00    +0.238 C 
ATOM     35  N   VAL A   2      20.608  93.854  11.301  0.00  0.00    -0.297 N 
ATOM     36  H   VAL A   2      20.409  94.201  12.261  0.00  0.00    +0.150 HD
ATOM     37  O   VAL A   1      19.743  93.214   9.322  0.00  0.00    -0.274 OA
BRANCH  34  38
ATOM     38  CA  VAL A   1      18.232  94.194  10.919  0.00  0.00    +0.145 C 
BRANCH  38  39
ATOM     39  CB  VAL A   1      17.332  92.955  11.111  0.00  0.00    +0.025 C 
ATOM     40  CG2 VAL A   1      17.862  92.108  12.251  0.00  0.00    +0.002 C 
ATOM     41  CG1 VAL A   1      15.896  93.381  11.385  0.00  0.00    +0.002 C 
ENDBRANCH  38  39
BRANCH  38  42
ATOM     42  N   VAL A   1      17.664  95.132   9.953  0.00  0.00    -0.238 NA
ATOM     43  H   VAL A   1      17.224  94.762   9.086  0.00  0.00    +0.142 HD
ENDBRANCH  38  42
ENDBRANCH  34  38
ENDBRANCH  33  35
BRANCH  33  44
ATOM     44  CB  VAL A   2      22.956  94.657  11.357  0.00  0.00    +0.027 C 
ATOM     45  CG2 VAL A   2      24.366  94.355  10.836  0.00  0.00    +0.002 C 
ATOM     46  CG1 VAL A   2      22.465  95.999  10.835  0.00  0.00    +0.002 C 
ENDBRANCH  33  44
ENDBRANCH  29  33
ENDBRANCH  28  31
BRANCH  28  47
ATOM     47  CB  LEU A   3      22.286  88.897  10.797  0.00  0.00    +0.029 C 
BRANCH  47  48
ATOM     48  CG  LEU A   3      20.835  89.255  11.158  0.00  0.00    +0.002 C 
ATOM     49  CD2 LEU A   3      20.103  88.042  11.632  0.00  0.00    +0.000 C 
ATOM     50  CD1 LEU A   3      20.139  89.846   9.948  0.00  0.00    +0.000 C 
ENDBRANCH  47  48
ENDBRANCH  28  47
ENDBRANCH  21  28
ENDBRANCH  17  26
ENDBRANCH  16  19
BRANCH  16  51
ATOM     51  CB  TYR A   5      28.741  88.346   6.465  0.00  0.00    +0.055 C 
BRANCH  51  52
ATOM     52  CG  TYR A   5      28.936  87.836   5.053  0.00  0.00    -0.020 A 
ATOM     53  CD2 TYR A   5      30.095  87.155   4.695  0.00  0.00    -0.001 A 
ATOM     54  CE2 TYR A   5      30.293  86.706   3.401  0.00  0.00    +0.036 A 
ATOM     55  CZ  TYR A   5      29.324  86.934   2.442  0.00  0.00    +0.134 A 
ATOM     56  CE1 TYR A   5      28.159  87.606   2.773  0.00  0.00    +0.036 A 
ATOM     57  CD1 TYR A   5      27.972  88.052   4.072  0.00  0.00    -0.001 A 
BRANCH  55  58
ATOM     58  OH  TYR A   5      29.531  86.501   1.148  0.00  0.00    -0.506 OA
ATOM     59  HH  TYR A   5      28.748  86.741   0.592  0.00  0.00    +0.292 HD
ENDBRANCH  55  58
ENDBRANCH  51  52
ENDBRANCH  16  51
ENDBRANCH  12  16
ENDBRANCH  11  14
BRANCH  11  60
ATOM     60  CB  MET A   6      26.198  83.110   6.716  0.00  0.00    +0.041 C 
BRANCH  60  61
ATOM     61  CG  MET A   6      25.570  83.346   8.084  0.00  0.00    +0.060 C 
BRANCH  61  62
ATOM     62  SD  MET A   6      26.428  82.486   9.429  0.00  0.00    -0.139 S 
ATOM     63  CE  MET A   6      26.795  83.841  10.522  0.00  0.00    +0.069 C 
ENDBRANCH  61  62
ENDBRANCH  60  61
ENDBRANCH  11  60
ENDBRANCH   7  11
ENDBRANCH   6   8
BRANCH   6  64
ATOM     64  CB  LYS A   7      31.692  82.872   4.322  0.00  0.00    +0.029 C 
BRANCH  64  65
ATOM     65  CG  LYS A   7      32.602  82.578   3.146  0.00  0.00    +0.000 C 
BRANCH  65  66
ATOM     66  CD  LYS A   7      34.039  82.458   3.629  0.00  0.00    -0.024 C 
BRANCH  66  67
ATOM     67  CE  LYS A   7      34.953  81.852   2.578  0.00  0.00    -0.086 C 
BRANCH  67  68
ATOM     68  NZ  LYS A   7      36.334  81.714   3.110  0.00  0.00    +0.380 N 
ATOM     69  HZ1 LYS A   7      36.322  81.096   3.946  0.00  0.00    -0.089 HD
ATOM     70  HZ2 LYS A   7      36.697  82.652   3.376  0.00  0.00    -0.089 HD
ATOM     71  HZ3 LYS A   7      36.946  81.298   2.379  0.00  0.00    -0.089 HD
ENDBRANCH  67  68
ENDBRANCH  66  67
ENDBRANCH  65  66
ENDBRANCH  64  65
ENDBRANCH   6  64
ENDBRANCH   2   6
ENDBRANCH   1   3
BRANCH   1  72
ATOM     72  C   HIS A   8      27.338  79.589   2.626  0.00  0.00    +0.241 C 
ATOM     73  N   GLY A   9      26.592  80.631   2.983  0.00  0.00    -0.295 N 
ATOM     74  H   GLY A   9      27.029  81.435   3.477  0.00  0.00    +0.150 HD
ATOM     75  O   HIS A   8      26.861  78.551   2.165  0.00  0.00    -0.273 OA
BRANCH  73  76
ATOM     76  CA  GLY A   9      25.172  80.653   2.687  0.00  0.00    +0.176 C 
BRANCH  76  77
ATOM     77  C   GLY A   9      24.366  79.684   3.533  0.00  0.00    +0.243 C 
ATOM     78  O   GLY A   9      24.780  79.296   4.625  0.00  0.00    -0.273 OA
ATOM     79  N   ASP A  10      23.201  79.289   3.035  0.00  0.00    -0.296 N 
ATOM     80  H   ASP A  10      22.886  79.644   2.109  0.00  0.00    +0.150 HD
BRANCH  79  81
ATOM     81  CA  ASP A  10      22.365  78.364   3.777  0.00  0.00    +0.160 C 
BRANCH  81  82
ATOM     82  C   ASP A  10      22.807  76.926   3.510  0.00  0.00    +0.241 C 
ATOM     83  N   LEU A  11      22.477  76.043   4.444  0.00  0.00    -0.297 N 
ATOM     84  H   LEU A  11      21.852  76.353   5.215  0.00  0.00    +0.150 HD
ATOM     85  O   ASP A  10      23.416  76.630   2.483  0.00  0.00    -0.273 OA
BRANCH  83  86
ATOM     86  CA  LEU A  11      22.943  74.665   4.447  0.00  0.00    +0.149 C 
BRANCH  86  87
ATOM     87  C   LEU A  11      22.431  73.828   3.267  0.00  0.00    +0.241 C 
ATOM     88  N   ARG A  12      21.164  74.007   2.887  0.00  0.00    -0.297 N 
ATOM     89  H   ARG A  12      20.574  74.711   3.374  0.00  0.00    +0.150 HD
ATOM     90  O   LEU A  11      23.185  73.028   2.701  0.00  0.00    -0.273 OA
BRANCH  88  91
ATOM     91  CA  ARG A  12      20.600  73.222   1.793  0.00  0.00    +0.149 C 
BRANCH  91  92
ATOM     92  C   ARG A  12      21.335  73.457   0.481  0.00  0.00    +0.241 C 
ATOM     93  N   ASN A  13      21.535  74.722   0.119  0.00  0.00    -0.297 N 
ATOM     94  H   ASN A  13      21.166  75.494   0.710  0.00  0.00    +0.150 HD
ATOM     95  O   ARG A  12      21.721  72.503  -0.200  0.00  0.00    -0.273 OA
BRANCH  93  96
ATOM     96  CA  ASN A  13      22.270  75.029  -1.103  0.00  0.00    +0.158 C 
BRANCH  96  97
ATOM     97  C   ASN A  13      23.722  74.556  -1.008  0.00  0.00    +0.241 C 
ATOM     98  N   PHE A  14      24.298  74.608   0.189  0.00  0.00    -0.298 N 
ATOM     99  H   PHE A  14      23.762  74.970   1.003  0.00  0.00    +0.150 HD
ATOM    100  O   ASN A  13      24.309  74.134  -2.003  0.00  0.00    -0.273 OA
BRANCH  98 101
ATOM    101  CA  PHE A  14      25.679  74.160   0.371  0.00  0.00    +0.141 C 
BRANCH 101 102
ATOM    102  C   PHE A  14      25.853  72.683   0.006  0.00  0.00    +0.227 C 
ATOM    103  O   PHE A  14      26.787  72.326  -0.710  0.00  0.00    -0.286 OA
ENDBRANCH 101 102
BRANCH 101 104
ATOM    104  CB  PHE A  14      26.140  74.388   1.821  0.00  0.00    +0.054 C 
BRANCH 104 105
ATOM    105  CG  PHE A  14      27.591  74.028   2.063  0.00  0.00    -0.020 A 
ATOM    106  CD2 PHE A  14      27.949  72.742   2.440  0.00  0.00    -0.004 A 
ATOM    107  CE2 PHE A  14      29.280  72.394   2.625  0.00  0.00    -0.000 A 
ATOM    108  CZ  PHE A  14      30.275  73.333   2.436  0.00  0.00    -0.000 A 
ATOM    109  CE1 PHE A  14      29.935  74.626   2.064  0.00  0.00    -0.000 A 
ATOM    110  CD1 PHE A  14      28.596  74.967   1.879  0.00  0.00    -0.004 A 
ENDBRANCH 104 105
ENDBRANCH 101 104
ENDBRANCH  98 101
ENDBRANCH  96  97
BRANCH  96 111
ATOM    111  CB  ASN A  13      22.217  76.536  -1.398  0.00  0.00    +0.114 C 
BRANCH 111 112
ATOM    112  CG  ASN A  13      20.961  76.939  -2.160  0.00  0.00    +0.222 C 
ATOM    113  ND2 ASN A  13      20.315  78.015  -1.718  0.00  0.00    -0.329 N 
ATOM    114 HD21 ASN A  13      20.674  78.534  -0.892  0.00  0.00    +0.145 HD
ATOM    115 HD22 ASN A  13      19.451  78.337  -2.199  0.00  0.00    +0.145 HD
ATOM    116  OD1 ASN A  13      20.578  76.288  -3.134  0.00  0.00    -0.275 OA
ENDBRANCH 111 112
ENDBRANCH  96 111
ENDBRANCH  93  96
ENDBRANCH  91  92
BRANCH  91 117
ATOM    117  CB  ARG A  12      19.112  73.526   1.582  0.00  0.00    +0.033 C 
BRANCH 117 118
ATOM    118  CG  ARG A  12      18.451  72.487   0.672  0.00  0.00    +0.045 C 
BRANCH 118 119
ATOM    119  CD  ARG A  12      17.098  72.916   0.114  0.00  0.00    +0.174 C 
BRANCH 119 120
ATOM    120  NE  ARG A  12      16.559  71.879  -0.768  0.00  0.00    -0.265 N 
ATOM    121  HE  ARG A  12      16.785  70.889  -0.542  0.00  0.00    +0.259 HD
ATOM    122  CZ  ARG A  12      15.801  72.109  -1.838  0.00  0.00    +0.342 C 
ATOM    123  NH2 ARG A  12      15.471  73.349  -2.182  0.00  0.00    -0.292 N 
ATOM    124 HH21 ARG A  12      15.805  74.153  -1.613  0.00  0.00    +0.255 HD
ATOM    125 HH22 ARG A  12      14.878  73.516  -3.020  0.00  0.00    +0.255 HD
ATOM    126  NH1 ARG A  12      15.377  71.094  -2.575  0.00  0.00    -0.292 N 
ATOM    127 HH11 ARG A  12      15.636  70.120  -2.317  0.00  0.00    +0.255 HD
ATOM    128 HH12 ARG A  12      14.785  71.270  -3.411  0.00  0.00    +0.255 HD
ENDBRANCH 119 120
ENDBRANCH 118 119
ENDBRANCH 117 118
ENDBRANCH  91 117
ENDBRANCH  88  91
ENDBRANCH  86  87
BRANCH  86 129
ATOM    129  CB  LEU A  11      22.536  74.011   5.770  0.00  0.00    +0.029 C 
BRANCH 129 130
ATOM    130  CG  LEU A  11      23.091  72.640   6.149  0.00  0.00    +0.002 C 
ATOM    131  CD2 LEU A  11      22.415  72.181   7.439  0.00  0.00    +0.000 C 
ATOM    132  CD1 LEU A  11      24.601  72.708   6.336  0.00  0.00    +0.000 C 
ENDBRANCH 129 130
ENDBRANCH  86 129
ENDBRANCH  83  86
ENDBRANCH  81  82
BRANCH  81 133
ATOM    133  CB  ASP A  10      20.896  78.547   3.388  0.00  0.00    +0.143 C 
BRANCH 133 134
ATOM    134  CG  ASP A  10      20.598  78.045   1.994  0.00  0.00    +0.367 C 
ATOM    135  OD2 ASP A  10      20.177  76.876   1.867  0.00  0.00    -0.246 OA
ATOM    136  OD1 ASP A  10      20.788  78.816   1.028  0.00  0.00    -0.246 OA
ENDBRANCH 133 134
ENDBRANCH  81 133
ENDBRANCH  79  81
ENDBRANCH  76  77
ENDBRANCH  73  76
ENDBRANCH   1  72
BRANCH   1 137
ATOM    137  CB  HIS A   8      29.452  78.463   3.405  0.00  0.00    +0.076 C 
BRANCH 137 138
ATOM    138  CG  HIS A   8      30.950  78.473   3.450  0.00  0.00    +0.082 A 
ATOM    139  ND1 HIS A   8      31.658  78.626   4.623  0.00  0.00    -0.227 NA
ATOM    140  CE1 HIS A   8      32.952  78.636   4.354  0.00  0.00    +0.199 A 
ATOM    141  NE2 HIS A   8      33.110  78.490   3.051  0.00  0.00    -0.221 NA
ATOM    142  CD2 HIS A   8      31.873  78.383   2.462  0.00  0.00    +0.115 A 
ENDBRANCH 137 138
ENDBRANCH   1 137
TORSDOF 56
REMARK  Name = ../refined-set-2016/3zc5/3zc5_pocket.pdb
REMARK  226 active torsions:
REMARK  status: ('A' for Active; 'I' for Inactive)
REMARK    1  A    between atoms: _1  and  _3
REMARK    2  A    between atoms: _3  and  _4
REMARK    3  A    between atoms: _3  and  _6
REMARK    4  A    between atoms: _9  and  _11
REMARK    5  A    between atoms: _11  and  _12
REMARK    6  A    between atoms: _11  and  _14
REMARK    7  A    between atoms: _14  and  _15
REMARK    8  A    between atoms: _18  and  _20
REMARK    9  A    between atoms: _20  and  _21
REMARK   10  A    between atoms: _23  and  _25
REMARK   11  A    between atoms: _25  and  _26
REMARK   12  A    between atoms: _25  and  _28
REMARK   13  A    between atoms: _28  and  _29
REMARK   14  A    between atoms: _29  and  _30
REMARK   15  A    between atoms: _30  and  _31
REMARK   16  A    between atoms: _40  and  _42
REMARK   17  A    between atoms: _42  and  _43
REMARK   18  A    between atoms: _45  and  _47
REMARK   19  A    between atoms: _47  and  _48
REMARK   20  A    between atoms: _47  and  _50
REMARK   21  A    between atoms: _52  and  _54
REMARK   22  A    between atoms: _54  and  _55
REMARK   23  A    between atoms: _54  and  _57
REMARK   24  A    between atoms: _60  and  _62
REMARK   25  A    between atoms: _62  and  _63
REMARK   26  A    between atoms: _62  and  _65
REMARK   27  A    between atoms: _65  and  _66
REMARK   28  A    between atoms: _71  and  _72
REMARK   29  A    between atoms: _74  and  _76
REMARK   30  A    between atoms: _76  and  _77
REMARK   31  A    between atoms: _76  and  _79
REMARK   32  A    between atoms: _79  and  _80
REMARK   33  A    between atoms: _85  and  _87
REMARK   34  A    between atoms: _87  and  _88
REMARK   35  A    between atoms: _90  and  _92
REMARK   36  A    between atoms: _92  and  _93
REMARK   37  A    between atoms: _92  and  _95
REMARK   38  A    between atoms: _95  and  _96
REMARK   39  A    between atoms: _101  and  _103
REMARK   40  A    between atoms: _103  and  _104
REMARK   41  A    between atoms: _103  and  _106
REMARK   42  A    between atoms: _108  and  _110
REMARK   43  A    between atoms: _110  and  _111
REMARK   44  A    between atoms: _114  and  _116
REMARK   45  A    between atoms: _116  and  _117
REMARK   46  A    between atoms: _116  and  _119
REMARK   47  A    between atoms: _122  and  _124
REMARK   48  A    between atoms: _124  and  _125
REMARK   49  A    between atoms: _124  and  _127
REMARK   50  A    between atoms: _127  and  _128
REMARK   51  A    between atoms: _128  and  _129
REMARK   52  A    between atoms: _129  and  _130
REMARK   53  A    between atoms: _130  and  _131
REMARK   54  A    between atoms: _135  and  _137
REMARK   55  A    between atoms: _137  and  _138
REMARK   56  A    between atoms: _137  and  _140
REMARK   57  A    between atoms: _140  and  _141
REMARK   58  A    between atoms: _143  and  _145
REMARK   59  A    between atoms: _145  and  _146
REMARK   60  A    between atoms: _145  and  _148
REMARK   61  A    between atoms: _148  and  _149
REMARK   62  A    between atoms: _149  and  _150
REMARK   63  A    between atoms: _152  and  _154
REMARK   64  A    between atoms: _154  and  _155
REMARK   65  A    between atoms: _154  and  _157
REMARK   66  A    between atoms: _157  and  _158
REMARK   67  A    between atoms: _161  and  _163
REMARK   68  A    between atoms: _163  and  _164
REMARK   69  A    between atoms: _163  and  _166
REMARK   70  A    between atoms: _166  and  _167
REMARK   71  A    between atoms: _169  and  _171
REMARK   72  A    between atoms: _171  and  _172
REMARK   73  A    between atoms: _171  and  _174
REMARK   74  A    between atoms: _177  and  _179
REMARK   75  A    between atoms: _179  and  _180
REMARK   76  A    between atoms: _179  and  _182
REMARK   77  A    between atoms: _185  and  _187
REMARK   78  A    between atoms: _187  and  _188
REMARK   79  A    between atoms: _187  and  _190
REMARK   80  A    between atoms: _190  and  _191
REMARK   81  A    between atoms: _195  and  _196
REMARK   82  A    between atoms: _201  and  _203
REMARK   83  A    between atoms: _203  and  _204
REMARK   84  A    between atoms: _203  and  _206
REMARK   85  A    between atoms: _206  and  _207
REMARK   86  A    between atoms: _212  and  _213
REMARK   87  A    between atoms: _215  and  _217
REMARK   88  A    between atoms: _217  and  _218
REMARK   89  A    between atoms: _217  and  _220
REMARK   90  A    between atoms: _220  and  _221
REMARK   91  A    between atoms: _221  and  _222
REMARK   92  A    between atoms: _224  and  _226
REMARK   93  A    between atoms: _226  and  _227
REMARK   94  A    between atoms: _226  and  _229
REMARK   95  A    between atoms: _229  and  _230
REMARK   96  A    between atoms: _230  and  _231
REMARK   97  A    between atoms: _231  and  _232
REMARK   98  A    between atoms: _232  and  _233
REMARK   99  A    between atoms: _237  and  _239
REMARK  100  A    between atoms: _239  and  _240
REMARK  101  A    between atoms: _239  and  _242
REMARK  102  A    between atoms: _242  and  _243
REMARK  103  A    between atoms: _248  and  _250
REMARK  104  A    between atoms: _250  and  _251
REMARK  105  A    between atoms: _253  and  _255
REMARK  106  A    between atoms: _255  and  _256
REMARK  107  A    between atoms: _255  and  _258
REMARK  108  A    between atoms: _258  and  _259
REMARK  109  A    between atoms: _262  and  _264
REMARK  110  A    between atoms: _264  and  _265
REMARK  111  A    between atoms: _264  and  _267
REMARK  112  A    between atoms: _267  and  _268
REMARK  113  A    between atoms: _271  and  _273
REMARK  114  A    between atoms: _273  and  _274
REMARK  115  A    between atoms: _273  and  _276
REMARK  116  A    between atoms: _276  and  _277
REMARK  117  A    between atoms: _277  and  _278
REMARK  118  A    between atoms: _278  and  _279
REMARK  119  A    between atoms: _288  and  _290
REMARK  120  A    between atoms: _290  and  _291
REMARK  121  A    between atoms: _290  and  _293
REMARK  122  A    between atoms: _293  and  _294
REMARK  123  A    between atoms: _299  and  _301
REMARK  124  A    between atoms: _301  and  _302
REMARK  125  A    between atoms: _301  and  _304
REMARK  126  A    between atoms: _304  and  _305
REMARK  127  A    between atoms: _311  and  _313
REMARK  128  A    between atoms: _313  and  _314
REMARK  129  A    between atoms: _313  and  _316
REMARK  130  A    between atoms: _316  and  _317
REMARK  131  A    between atoms: _322  and  _324
REMARK  132  A    between atoms: _324  and  _325
REMARK  133  A    between atoms: _324  and  _327
REMARK  134  A    between atoms: _327  and  _328
REMARK  135  A    between atoms: _331  and  _333
REMARK  136  A    between atoms: _333  and  _334
REMARK  137  A    between atoms: _337  and  _339
REMARK  138  A    between atoms: _339  and  _340
REMARK  139  A    between atoms: _343  and  _345
REMARK  140  A    between atoms: _345  and  _346
REMARK  141  A    between atoms: _345  and  _348
REMARK  142  A    between atoms: _348  and  _349
REMARK  143  A    between atoms: _349  and  _350
REMARK  144  A    between atoms: _350  and  _351
REMARK  145  A    between atoms: _360  and  _362
REMARK  146  A    between atoms: _362  and  _363
REMARK  147  A    between atoms: _362  and  _365
REMARK  148  A    between atoms: _365  and  _366
REMARK  149  A    between atoms: _371  and  _373
REMARK  150  A    between atoms: _373  and  _374
REMARK  151  A    between atoms: _373  and  _376
REMARK  152  A    between atoms: _378  and  _380
REMARK  153  A    between atoms: _380  and  _381
REMARK  154  A    between atoms: _380  and  _383
REMARK  155  A    between atoms: _383  and  _384
REMARK  156  A    between atoms: _384  and  _385
REMARK  157  A    between atoms: _387  and  _389
REMARK  158  A    between atoms: _389  and  _390
REMARK  159  A    between atoms: _389  and  _392
REMARK  160  A    between atoms: _392  and  _393
REMARK  161  A    between atoms: _396  and  _398
REMARK  162  A    between atoms: _398  and  _399
REMARK  163  A    between atoms: _398  and  _401
REMARK  164  A    between atoms: _401  and  _402
REMARK  165  A    between atoms: _405  and  _407
REMARK  166  A    between atoms: _407  and  _408
REMARK  167  A    between atoms: _407  and  _410
REMARK  168  A    between atoms: _410  and  _411
REMARK  169  A    between atoms: _411  and  _412
REMARK  170  A    between atoms: _412  and  _413
REMARK  171  A    between atoms: _413  and  _414
REMARK  172  A    between atoms: _418  and  _420
REMARK  173  A    between atoms: _420  and  _421
REMARK  174  A    between atoms: _420  and  _423
REMARK  175  A    between atoms: _426  and  _428
REMARK  176  A    between atoms: _428  and  _429
REMARK  177  A    between atoms: _432  and  _434
REMARK  178  A    between atoms: _434  and  _435
REMARK  179  A    between atoms: _434  and  _437
REMARK  180  A    between atoms: _437  and  _438
REMARK  181  A    between atoms: _441  and  _443
REMARK  182  A    between atoms: _443  and  _444
REMARK  183  A    between atoms: _443  and  _446
REMARK  184  A    between atoms: _446  and  _447
REMARK  185  A    between atoms: _453  and  _455
REMARK  186  A    between atoms: _455  and  _456
REMARK  187  A    between atoms: _455  and  _458
REMARK  188  A    between atoms: _458  and  _459
REMARK  189  A    between atoms: _462  and  _464
REMARK  190  A    between atoms: _464  and  _465
REMARK  191  A    between atoms: _468  and  _470
REMARK  192  A    between atoms: _470  and  _471
REMARK  193  A    between atoms: _470  and  _473
REMARK  194  A    between atoms: _473  and  _474
REMARK  195  A    between atoms: _474  and  _475
REMARK  196  A    between atoms: _475  and  _476
REMARK  197  A    between atoms: _485  and  _487
REMARK  198  A    between atoms: _487  and  _488
REMARK  199  A    between atoms: _487  and  _490
REMARK  200  A    between atoms: _490  and  _491
REMARK  201  A    between atoms: _494  and  _496
REMARK  202  A    between atoms: _496  and  _497
REMARK  203  A    between atoms: _496  and  _499
REMARK  204  A    between atoms: _499  and  _500
REMARK  205  A    between atoms: _500  and  _501
REMARK  206  A    between atoms: _503  and  _505
REMARK  207  A    between atoms: _505  and  _506
REMARK  208  A    between atoms: _505  and  _508
REMARK  209  A    between atoms: _508  and  _509
REMARK  210  A    between atoms: _514  and  _515
REMARK  211  A    between atoms: _517  and  _519
REMARK  212  A    between atoms: _519  and  _520
REMARK  213  A    between atoms: _519  and  _522
REMARK  214  A    between atoms: _522  and  _523
REMARK  215  A    between atoms: _526  and  _528
REMARK  216  A    between atoms: _528  and  _529
REMARK  217  A    between atoms: _528  and  _531
REMARK  218  A    between atoms: _531  and  _532
REMARK  219  A    between atoms: _532  and  _533
REMARK  220  A    between atoms: _533  and  _534
REMARK  221  A    between atoms: _534  and  _535
REMARK  222  A    between atoms: _539  and  _541
REMARK  223  A    between atoms: _541  and  _542
REMARK  224  A    between atoms: _541  and  _544
REMARK  225  A    between atoms: _544  and  _545
REMARK  226  A    between atoms: _550  and  _551
REMARK                            x       y       z     vdW  Elec       q    Type
REMARK                         _______ _______ _______ _____ _____    ______ ____
ROOT
ATOM      1  CB  HIS A   1      12.723  77.005  15.773  0.00  0.00    +0.072 C 
ENDROOT
BRANCH   1   2
ATOM      2  CG  HIS A   1      13.319  77.579  14.526  0.00  0.00    +0.082 A 
ATOM      3  ND1 HIS A   1      14.606  78.072  14.476  0.00  0.00    -0.227 NA
ATOM      4  CE1 HIS A   1      14.850  78.537  13.263  0.00  0.00    +0.199 A 
ATOM      5  NE2 HIS A   1      13.769  78.361  12.525  0.00  0.00    -0.221 NA
ATOM      6  CD2 HIS A   1      12.798  77.761  13.291  0.00  0.00    +0.115 A 
ENDBRANCH   1   2
BRANCH   1   7
ATOM      7  CA  HIS A   1      11.573  77.838  16.349  0.00  0.00    +0.139 C 
BRANCH   7   8
ATOM      8  N   HIS A   1      11.136  77.270  17.619  0.00  0.00    -0.239 NA
ATOM      9  H   HIS A   1      11.330  76.268  17.817  0.00  0.00    +0.142 HD
ENDBRANCH   7   8
BRANCH   7  10
ATOM     10  C   HIS A   1      10.444  77.929  15.321  0.00  0.00    +0.224 C 
ATOM     11  O   HIS A   1      10.213  78.986  14.736  0.00  0.00    -0.287 OA
ENDBRANCH   7  10
ENDBRANCH   1   7
TORSDOF 4
REMARK  Name = ../refined-set-2016/3zc5/3zc5_pocket.pdb
REMARK  226 active torsions:
REMARK  status: ('A' for Active; 'I' for Inactive)
REMARK    1  A    between atoms: _1  and  _3
REMARK    2  A    between atoms: _3  and  _4
REMARK    3  A    between atoms: _3  and  _6
REMARK    4  A    between atoms: _9  and  _11
REMARK    5  A    between atoms: _11  and  _12
REMARK    6  A    between atoms: _11  and  _14
REMARK    7  A    between atoms: _14  and  _15
REMARK    8  A    between atoms: _18  and  _20
REMARK    9  A    between atoms: _20  and  _21
REMARK   10  A    between atoms: _23  and  _25
REMARK   11  A    between atoms: _25  and  _26
REMARK   12  A    between atoms: _25  and  _28
REMARK   13  A    between atoms: _28  and  _29
REMARK   14  A    between atoms: _29  and  _30
REMARK   15  A    between atoms: _30  and  _31
REMARK   16  A    between atoms: _40  and  _42
REMARK   17  A    between atoms: _42  and  _43
REMARK   18  A    between atoms: _45  and  _47
REMARK   19  A    between atoms: _47  and  _48
REMARK   20  A    between atoms: _47  and  _50
REMARK   21  A    between atoms: _52  and  _54
REMARK   22  A    between atoms: _54  and  _55
REMARK   23  A    between atoms: _54  and  _57
REMARK   24  A    between atoms: _60  and  _62
REMARK   25  A    between atoms: _62  and  _63
REMARK   26  A    between atoms: _62  and  _65
REMARK   27  A    between atoms: _65  and  _66
REMARK   28  A    between atoms: _71  and  _72
REMARK   29  A    between atoms: _74  and  _76
REMARK   30  A    between atoms: _76  and  _77
REMARK   31  A    between atoms: _76  and  _79
REMARK   32  A    between atoms: _79  and  _80
REMARK   33  A    between atoms: _85  and  _87
REMARK   34  A    between atoms: _87  and  _88
REMARK   35  A    between atoms: _90  and  _92
REMARK   36  A    between atoms: _92  and  _93
REMARK   37  A    between atoms: _92  and  _95
REMARK   38  A    between atoms: _95  and  _96
REMARK   39  A    between atoms: _101  and  _103
REMARK   40  A    between atoms: _103  and  _104
REMARK   41  A    between atoms: _103  and  _106
REMARK   42  A    between atoms: _108  and  _110
REMARK   43  A    between atoms: _110  and  _111
REMARK   44  A    between atoms: _114  and  _116
REMARK   45  A    between atoms: _116  and  _117
REMARK   46  A    between atoms: _116  and  _119
REMARK   47  A    between atoms: _122  and  _124
REMARK   48  A    between atoms: _124  and  _125
REMARK   49  A    between atoms: _124  and  _127
REMARK   50  A    between atoms: _127  and  _128
REMARK   51  A    between atoms: _128  and  _129
REMARK   52  A    between atoms: _129  and  _130
REMARK   53  A    between atoms: _130  and  _131
REMARK   54  A    between atoms: _135  and  _137
REMARK   55  A    between atoms: _137  and  _138
REMARK   56  A    between atoms: _137  and  _140
REMARK   57  A    between atoms: _140  and  _141
REMARK   58  A    between atoms: _143  and  _145
REMARK   59  A    between atoms: _145  and  _146
REMARK   60  A    between atoms: _145  and  _148
REMARK   61  A    between atoms: _148  and  _149
REMARK   62  A    between atoms: _149  and  _150
REMARK   63  A    between atoms: _152  and  _154
REMARK   64  A    between atoms: _154  and  _155
REMARK   65  A    between atoms: _154  and  _157
REMARK   66  A    between atoms: _157  and  _158
REMARK   67  A    between atoms: _161  and  _163
REMARK   68  A    between atoms: _163  and  _164
REMARK   69  A    between atoms: _163  and  _166
REMARK   70  A    between atoms: _166  and  _167
REMARK   71  A    between atoms: _169  and  _171
REMARK   72  A    between atoms: _171  and  _172
REMARK   73  A    between atoms: _171  and  _174
REMARK   74  A    between atoms: _177  and  _179
REMARK   75  A    between atoms: _179  and  _180
REMARK   76  A    between atoms: _179  and  _182
REMARK   77  A    between atoms: _185  and  _187
REMARK   78  A    between atoms: _187  and  _188
REMARK   79  A    between atoms: _187  and  _190
REMARK   80  A    between atoms: _190  and  _191
REMARK   81  A    between atoms: _195  and  _196
REMARK   82  A    between atoms: _201  and  _203
REMARK   83  A    between atoms: _203  and  _204
REMARK   84  A    between atoms: _203  and  _206
REMARK   85  A    between atoms: _206  and  _207
REMARK   86  A    between atoms: _212  and  _213
REMARK   87  A    between atoms: _215  and  _217
REMARK   88  A    between atoms: _217  and  _218
REMARK   89  A    between atoms: _217  and  _220
REMARK   90  A    between atoms: _220  and  _221
REMARK   91  A    between atoms: _221  and  _222
REMARK   92  A    between atoms: _224  and  _226
REMARK   93  A    between atoms: _226  and  _227
REMARK   94  A    between atoms: _226  and  _229
REMARK   95  A    between atoms: _229  and  _230
REMARK   96  A    between atoms: _230  and  _231
REMARK   97  A    between atoms: _231  and  _232
REMARK   98  A    between atoms: _232  and  _233
REMARK   99  A    between atoms: _237  and  _239
REMARK  100  A    between atoms: _239  and  _240
REMARK  101  A    between atoms: _239  and  _242
REMARK  102  A    between atoms: _242  and  _243
REMARK  103  A    between atoms: _248  and  _250
REMARK  104  A    between atoms: _250  and  _251
REMARK  105  A    between atoms: _253  and  _255
REMARK  106  A    between atoms: _255  and  _256
REMARK  107  A    between atoms: _255  and  _258
REMARK  108  A    between atoms: _258  and  _259
REMARK  109  A    between atoms: _262  and  _264
REMARK  110  A    between atoms: _264  and  _265
REMARK  111  A    between atoms: _264  and  _267
REMARK  112  A    between atoms: _267  and  _268
REMARK  113  A    between atoms: _271  and  _273
REMARK  114  A    between atoms: _273  and  _274
REMARK  115  A    between atoms: _273  and  _276
REMARK  116  A    between atoms: _276  and  _277
REMARK  117  A    between atoms: _277  and  _278
REMARK  118  A    between atoms: _278  and  _279
REMARK  119  A    between atoms: _288  and  _290
REMARK  120  A    between atoms: _290  and  _291
REMARK  121  A    between atoms: _290  and  _293
REMARK  122  A    between atoms: _293  and  _294
REMARK  123  A    between atoms: _299  and  _301
REMARK  124  A    between atoms: _301  and  _302
REMARK  125  A    between atoms: _301  and  _304
REMARK  126  A    between atoms: _304  and  _305
REMARK  127  A    between atoms: _311  and  _313
REMARK  128  A    between atoms: _313  and  _314
REMARK  129  A    between atoms: _313  and  _316
REMARK  130  A    between atoms: _316  and  _317
REMARK  131  A    between atoms: _322  and  _324
REMARK  132  A    between atoms: _324  and  _325
REMARK  133  A    between atoms: _324  and  _327
REMARK  134  A    between atoms: _327  and  _328
REMARK  135  A    between atoms: _331  and  _333
REMARK  136  A    between atoms: _333  and  _334
REMARK  137  A    between atoms: _337  and  _339
REMARK  138  A    between atoms: _339  and  _340
REMARK  139  A    between atoms: _343  and  _345
REMARK  140  A    between atoms: _345  and  _346
REMARK  141  A    between atoms: _345  and  _348
REMARK  142  A    between atoms: _348  and  _349
REMARK  143  A    between atoms: _349  and  _350
REMARK  144  A    between atoms: _350  and  _351
REMARK  145  A    between atoms: _360  and  _362
REMARK  146  A    between atoms: _362  and  _363
REMARK  147  A    between atoms: _362  and  _365
REMARK  148  A    between atoms: _365  and  _366
REMARK  149  A    between atoms: _371  and  _373
REMARK  150  A    between atoms: _373  and  _374
REMARK  151  A    between atoms: _373  and  _376
REMARK  152  A    between atoms: _378  and  _380
REMARK  153  A    between atoms: _380  and  _381
REMARK  154  A    between atoms: _380  and  _383
REMARK  155  A    between atoms: _383  and  _384
REMARK  156  A    between atoms: _384  and  _385
REMARK  157  A    between atoms: _387  and  _389
REMARK  158  A    between atoms: _389  and  _390
REMARK  159  A    between atoms: _389  and  _392
REMARK  160  A    between atoms: _392  and  _393
REMARK  161  A    between atoms: _396  and  _398
REMARK  162  A    between atoms: _398  and  _399
REMARK  163  A    between atoms: _398  and  _401
REMARK  164  A    between atoms: _401  and  _402
REMARK  165  A    between atoms: _405  and  _407
REMARK  166  A    between atoms: _407  and  _408
REMARK  167  A    between atoms: _407  and  _410
REMARK  168  A    between atoms: _410  and  _411
REMARK  169  A    between atoms: _411  and  _412
REMARK  170  A    between atoms: _412  and  _413
REMARK  171  A    between atoms: _413  and  _414
REMARK  172  A    between atoms: _418  and  _420
REMARK  173  A    between atoms: _420  and  _421
REMARK  174  A    between atoms: _420  and  _423
REMARK  175  A    between atoms: _426  and  _428
REMARK  176  A    between atoms: _428  and  _429
REMARK  177  A    between atoms: _432  and  _434
REMARK  178  A    between atoms: _434  and  _435
REMARK  179  A    between atoms: _434  and  _437
REMARK  180  A    between atoms: _437  and  _438
REMARK  181  A    between atoms: _441  and  _443
REMARK  182  A    between atoms: _443  and  _444
REMARK  183  A    between atoms: _443  and  _446
REMARK  184  A    between atoms: _446  and  _447
REMARK  185  A    between atoms: _453  and  _455
REMARK  186  A    between atoms: _455  and  _456
REMARK  187  A    between atoms: _455  and  _458
REMARK  188  A    between atoms: _458  and  _459
REMARK  189  A    between atoms: _462  and  _464
REMARK  190  A    between atoms: _464  and  _465
REMARK  191  A    between atoms: _468  and  _470
REMARK  192  A    between atoms: _470  and  _471
REMARK  193  A    between atoms: _470  and  _473
REMARK  194  A    between atoms: _473  and  _474
REMARK  195  A    between atoms: _474  and  _475
REMARK  196  A    between atoms: _475  and  _476
REMARK  197  A    between atoms: _485  and  _487
REMARK  198  A    between atoms: _487  and  _488
REMARK  199  A    between atoms: _487  and  _490
REMARK  200  A    between atoms: _490  and  _491
REMARK  201  A    between atoms: _494  and  _496
REMARK  202  A    between atoms: _496  and  _497
REMARK  203  A    between atoms: _496  and  _499
REMARK  204  A    between atoms: _499  and  _500
REMARK  205  A    between atoms: _500  and  _501
REMARK  206  A    between atoms: _503  and  _505
REMARK  207  A    between atoms: _505  and  _506
REMARK  208  A    between atoms: _505  and  _508
REMARK  209  A    between atoms: _508  and  _509
REMARK  210  A    between atoms: _514  and  _515
REMARK  211  A    between atoms: _517  and  _519
REMARK  212  A    between atoms: _519  and  _520
REMARK  213  A    between atoms: _519  and  _522
REMARK  214  A    between atoms: _522  and  _523
REMARK  215  A    between atoms: _526  and  _528
REMARK  216  A    between atoms: _528  and  _529
REMARK  217  A    between atoms: _528  and  _531
REMARK  218  A    between atoms: _531  and  _532
REMARK  219  A    between atoms: _532  and  _533
REMARK  220  A    between atoms: _533  and  _534
REMARK  221  A    between atoms: _534  and  _535
REMARK  222  A    between atoms: _539  and  _541
REMARK  223  A    between atoms: _541  and  _542
REMARK  224  A    between atoms: _541  and  _544
REMARK  225  A    between atoms: _544  and  _545
REMARK  226  A    between atoms: _550  and  _551
REMARK                            x       y       z     vdW  Elec       q    Type
REMARK                         _______ _______ _______ _____ _____    ______ ____
ROOT
ATOM      1  CA  ASP A   1      10.497  76.629  10.949  0.00  0.00    +0.144 C 
ENDROOT
BRANCH   1   2
ATOM      2  N   ASP A   1      10.133  76.706  12.365  0.00  0.00    -0.239 NA
ATOM      3  H   ASP A   1      10.880  76.813  13.080  0.00  0.00    +0.142 HD
ENDBRANCH   1   2
BRANCH   1   4
ATOM      4  C   ASP A   1      11.910  76.104  10.715  0.00  0.00    +0.225 C 
ATOM      5  O   ASP A   1      12.617  76.578   9.829  0.00  0.00    -0.287 OA
ENDBRANCH   1   4
BRANCH   1   6
ATOM      6  CB  ASP A   1      10.362  78.001  10.281  0.00  0.00    +0.139 C 
BRANCH   6   7
ATOM      7  CG  ASP A   1      10.342  77.912   8.758  0.00  0.00    +0.367 C 
ATOM      8  OD2 ASP A   1      10.289  76.781   8.226  0.00  0.00    -0.246 OA
ATOM      9  OD1 ASP A   1      10.379  78.971   8.092  0.00  0.00    -0.246 OA
ENDBRANCH   6   7
ENDBRANCH   1   6
TORSDOF 4
REMARK  Name = ../refined-set-2016/3zc5/3zc5_pocket.pdb
REMARK  226 active torsions:
REMARK  status: ('A' for Active; 'I' for Inactive)
REMARK    1  A    between atoms: _1  and  _3
REMARK    2  A    between atoms: _3  and  _4
REMARK    3  A    between atoms: _3  and  _6
REMARK    4  A    between atoms: _9  and  _11
REMARK    5  A    between atoms: _11  and  _12
REMARK    6  A    between atoms: _11  and  _14
REMARK    7  A    between atoms: _14  and  _15
REMARK    8  A    between atoms: _18  and  _20
REMARK    9  A    between atoms: _20  and  _21
REMARK   10  A    between atoms: _23  and  _25
REMARK   11  A    between atoms: _25  and  _26
REMARK   12  A    between atoms: _25  and  _28
REMARK   13  A    between atoms: _28  and  _29
REMARK   14  A    between atoms: _29  and  _30
REMARK   15  A    between atoms: _30  and  _31
REMARK   16  A    between atoms: _40  and  _42
REMARK   17  A    between atoms: _42  and  _43
REMARK   18  A    between atoms: _45  and  _47
REMARK   19  A    between atoms: _47  and  _48
REMARK   20  A    between atoms: _47  and  _50
REMARK   21  A    between atoms: _52  and  _54
REMARK   22  A    between atoms: _54  and  _55
REMARK   23  A    between atoms: _54  and  _57
REMARK   24  A    between atoms: _60  and  _62
REMARK   25  A    between atoms: _62  and  _63
REMARK   26  A    between atoms: _62  and  _65
REMARK   27  A    between atoms: _65  and  _66
REMARK   28  A    between atoms: _71  and  _72
REMARK   29  A    between atoms: _74  and  _76
REMARK   30  A    between atoms: _76  and  _77
REMARK   31  A    between atoms: _76  and  _79
REMARK   32  A    between atoms: _79  and  _80
REMARK   33  A    between atoms: _85  and  _87
REMARK   34  A    between atoms: _87  and  _88
REMARK   35  A    between atoms: _90  and  _92
REMARK   36  A    between atoms: _92  and  _93
REMARK   37  A    between atoms: _92  and  _95
REMARK   38  A    between atoms: _95  and  _96
REMARK   39  A    between atoms: _101  and  _103
REMARK   40  A    between atoms: _103  and  _104
REMARK   41  A    between atoms: _103  and  _106
REMARK   42  A    between atoms: _108  and  _110
REMARK   43  A    between atoms: _110  and  _111
REMARK   44  A    between atoms: _114  and  _116
REMARK   45  A    between atoms: _116  and  _117
REMARK   46  A    between atoms: _116  and  _119
REMARK   47  A    between atoms: _122  and  _124
REMARK   48  A    between atoms: _124  and  _125
REMARK   49  A    between atoms: _124  and  _127
REMARK   50  A    between atoms: _127  and  _128
REMARK   51  A    between atoms: _128  and  _129
REMARK   52  A    between atoms: _129  and  _130
REMARK   53  A    between atoms: _130  and  _131
REMARK   54  A    between atoms: _135  and  _137
REMARK   55  A    between atoms: _137  and  _138
REMARK   56  A    between atoms: _137  and  _140
REMARK   57  A    between atoms: _140  and  _141
REMARK   58  A    between atoms: _143  and  _145
REMARK   59  A    between atoms: _145  and  _146
REMARK   60  A    between atoms: _145  and  _148
REMARK   61  A    between atoms: _148  and  _149
REMARK   62  A    between atoms: _149  and  _150
REMARK   63  A    between atoms: _152  and  _154
REMARK   64  A    between atoms: _154  and  _155
REMARK   65  A    between atoms: _154  and  _157
REMARK   66  A    between atoms: _157  and  _158
REMARK   67  A    between atoms: _161  and  _163
REMARK   68  A    between atoms: _163  and  _164
REMARK   69  A    between atoms: _163  and  _166
REMARK   70  A    between atoms: _166  and  _167
REMARK   71  A    between atoms: _169  and  _171
REMARK   72  A    between atoms: _171  and  _172
REMARK   73  A    between atoms: _171  and  _174
REMARK   74  A    between atoms: _177  and  _179
REMARK   75  A    between atoms: _179  and  _180
REMARK   76  A    between atoms: _179  and  _182
REMARK   77  A    between atoms: _185  and  _187
REMARK   78  A    between atoms: _187  and  _188
REMARK   79  A    between atoms: _187  and  _190
REMARK   80  A    between atoms: _190  and  _191
REMARK   81  A    between atoms: _195  and  _196
REMARK   82  A    between atoms: _201  and  _203
REMARK   83  A    between atoms: _203  and  _204
REMARK   84  A    between atoms: _203  and  _206
REMARK   85  A    between atoms: _206  and  _207
REMARK   86  A    between atoms: _212  and  _213
REMARK   87  A    between atoms: _215  and  _217
REMARK   88  A    between atoms: _217  and  _218
REMARK   89  A    between atoms: _217  and  _220
REMARK   90  A    between atoms: _220  and  _221
REMARK   91  A    between atoms: _221  and  _222
REMARK   92  A    between atoms: _224  and  _226
REMARK   93  A    between atoms: _226  and  _227
REMARK   94  A    between atoms: _226  and  _229
REMARK   95  A    between atoms: _229  and  _230
REMARK   96  A    between atoms: _230  and  _231
REMARK   97  A    between atoms: _231  and  _232
REMARK   98  A    between atoms: _232  and  _233
REMARK   99  A    between atoms: _237  and  _239
REMARK  100  A    between atoms: _239  and  _240
REMARK  101  A    between atoms: _239  and  _242
REMARK  102  A    between atoms: _242  and  _243
REMARK  103  A    between atoms: _248  and  _250
REMARK  104  A    between atoms: _250  and  _251
REMARK  105  A    between atoms: _253  and  _255
REMARK  106  A    between atoms: _255  and  _256
REMARK  107  A    between atoms: _255  and  _258
REMARK  108  A    between atoms: _258  and  _259
REMARK  109  A    between atoms: _262  and  _264
REMARK  110  A    between atoms: _264  and  _265
REMARK  111  A    between atoms: _264  and  _267
REMARK  112  A    between atoms: _267  and  _268
REMARK  113  A    between atoms: _271  and  _273
REMARK  114  A    between atoms: _273  and  _274
REMARK  115  A    between atoms: _273  and  _276
REMARK  116  A    between atoms: _276  and  _277
REMARK  117  A    between atoms: _277  and  _278
REMARK  118  A    between atoms: _278  and  _279
REMARK  119  A    between atoms: _288  and  _290
REMARK  120  A    between atoms: _290  and  _291
REMARK  121  A    between atoms: _290  and  _293
REMARK  122  A    between atoms: _293  and  _294
REMARK  123  A    between atoms: _299  and  _301
REMARK  124  A    between atoms: _301  and  _302
REMARK  125  A    between atoms: _301  and  _304
REMARK  126  A    between atoms: _304  and  _305
REMARK  127  A    between atoms: _311  and  _313
REMARK  128  A    between atoms: _313  and  _314
REMARK  129  A    between atoms: _313  and  _316
REMARK  130  A    between atoms: _316  and  _317
REMARK  131  A    between atoms: _322  and  _324
REMARK  132  A    between atoms: _324  and  _325
REMARK  133  A    between atoms: _324  and  _327
REMARK  134  A    between atoms: _327  and  _328
REMARK  135  A    between atoms: _331  and  _333
REMARK  136  A    between atoms: _333  and  _334
REMARK  137  A    between atoms: _337  and  _339
REMARK  138  A    between atoms: _339  and  _340
REMARK  139  A    between atoms: _343  and  _345
REMARK  140  A    between atoms: _345  and  _346
REMARK  141  A    between atoms: _345  and  _348
REMARK  142  A    between atoms: _348  and  _349
REMARK  143  A    between atoms: _349  and  _350
REMARK  144  A    between atoms: _350  and  _351
REMARK  145  A    between atoms: _360  and  _362
REMARK  146  A    between atoms: _362  and  _363
REMARK  147  A    between atoms: _362  and  _365
REMARK  148  A    between atoms: _365  and  _366
REMARK  149  A    between atoms: _371  and  _373
REMARK  150  A    between atoms: _373  and  _374
REMARK  151  A    between atoms: _373  and  _376
REMARK  152  A    between atoms: _378  and  _380
REMARK  153  A    between atoms: _380  and  _381
REMARK  154  A    between atoms: _380  and  _383
REMARK  155  A    between atoms: _383  and  _384
REMARK  156  A    between atoms: _384  and  _385
REMARK  157  A    between atoms: _387  and  _389
REMARK  158  A    between atoms: _389  and  _390
REMARK  159  A    between atoms: _389  and  _392
REMARK  160  A    between atoms: _392  and  _393
REMARK  161  A    between atoms: _396  and  _398
REMARK  162  A    between atoms: _398  and  _399
REMARK  163  A    between atoms: _398  and  _401
REMARK  164  A    between atoms: _401  and  _402
REMARK  165  A    between atoms: _405  and  _407
REMARK  166  A    between atoms: _407  and  _408
REMARK  167  A    between atoms: _407  and  _410
REMARK  168  A    between atoms: _410  and  _411
REMARK  169  A    between atoms: _411  and  _412
REMARK  170  A    between atoms: _412  and  _413
REMARK  171  A    between atoms: _413  and  _414
REMARK  172  A    between atoms: _418  and  _420
REMARK  173  A    between atoms: _420  and  _421
REMARK  174  A    between atoms: _420  and  _423
REMARK  175  A    between atoms: _426  and  _428
REMARK  176  A    between atoms: _428  and  _429
REMARK  177  A    between atoms: _432  and  _434
REMARK  178  A    between atoms: _434  and  _435
REMARK  179  A    between atoms: _434  and  _437
REMARK  180  A    between atoms: _437  and  _438
REMARK  181  A    between atoms: _441  and  _443
REMARK  182  A    between atoms: _443  and  _444
REMARK  183  A    between atoms: _443  and  _446
REMARK  184  A    between atoms: _446  and  _447
REMARK  185  A    between atoms: _453  and  _455
REMARK  186  A    between atoms: _455  and  _456
REMARK  187  A    between atoms: _455  and  _458
REMARK  188  A    between atoms: _458  and  _459
REMARK  189  A    between atoms: _462  and  _464
REMARK  190  A    between atoms: _464  and  _465
REMARK  191  A    between atoms: _468  and  _470
REMARK  192  A    between atoms: _470  and  _471
REMARK  193  A    between atoms: _470  and  _473
REMARK  194  A    between atoms: _473  and  _474
REMARK  195  A    between atoms: _474  and  _475
REMARK  196  A    between atoms: _475  and  _476
REMARK  197  A    between atoms: _485  and  _487
REMARK  198  A    between atoms: _487  and  _488
REMARK  199  A    between atoms: _487  and  _490
REMARK  200  A    between atoms: _490  and  _491
REMARK  201  A    between atoms: _494  and  _496
REMARK  202  A    between atoms: _496  and  _497
REMARK  203  A    between atoms: _496  and  _499
REMARK  204  A    between atoms: _499  and  _500
REMARK  205  A    between atoms: _500  and  _501
REMARK  206  A    between atoms: _503  and  _505
REMARK  207  A    between atoms: _505  and  _506
REMARK  208  A    between atoms: _505  and  _508
REMARK  209  A    between atoms: _508  and  _509
REMARK  210  A    between atoms: _514  and  _515
REMARK  211  A    between atoms: _517  and  _519
REMARK  212  A    between atoms: _519  and  _520
REMARK  213  A    between atoms: _519  and  _522
REMARK  214  A    between atoms: _522  and  _523
REMARK  215  A    between atoms: _526  and  _528
REMARK  216  A    between atoms: _528  and  _529
REMARK  217  A    between atoms: _528  and  _531
REMARK  218  A    between atoms: _531  and  _532
REMARK  219  A    between atoms: _532  and  _533
REMARK  220  A    between atoms: _533  and  _534
REMARK  221  A    between atoms: _534  and  _535
REMARK  222  A    between atoms: _539  and  _541
REMARK  223  A    between atoms: _541  and  _542
REMARK  224  A    between atoms: _541  and  _544
REMARK  225  A    between atoms: _544  and  _545
REMARK  226  A    between atoms: _550  and  _551
REMARK                            x       y       z     vdW  Elec       q    Type
REMARK                         _______ _______ _______ _____ _____    ______ ____
ROOT
ATOM      1  CA  ASN A   4      16.974  77.878   7.334  0.00  0.00    +0.158 C 
ENDROOT
BRANCH   1   2
ATOM      2  C   ASN A   4      18.159  77.840   8.314  0.00  0.00    +0.241 C 
ATOM      3  O   ASN A   4      18.148  78.531   9.333  0.00  0.00    -0.273 OA
ATOM      4  N   CYS A   5      19.176  77.038   8.000  0.00  0.00    -0.296 N 
ATOM      5  H   CYS A   5      19.070  76.372   7.208  0.00  0.00    +0.150 HD
BRANCH   4   6
ATOM      6  CA  CYS A   5      20.441  77.070   8.743  0.00  0.00    +0.160 C 
BRANCH   6   7
ATOM      7  C   CYS A   5      21.550  77.603   7.839  0.00  0.00    +0.242 C 
ATOM      8  N   MET A   6      22.468  78.387   8.411  0.00  0.00    -0.297 N 
ATOM      9  H   MET A   6      22.422  78.542   9.438  0.00  0.00    +0.150 HD
ATOM     10  O   CYS A   5      21.565  77.306   6.642  0.00  0.00    -0.273 OA
BRANCH   8  11
ATOM     11  CA  MET A   6      23.539  79.038   7.646  0.00  0.00    +0.149 C 
BRANCH  11  12
ATOM     12  C   MET A   6      24.918  78.494   8.032  0.00  0.00    +0.241 C 
ATOM     13  O   MET A   6      25.084  77.929   9.111  0.00  0.00    -0.273 OA
ATOM     14  N   LEU A   7      25.902  78.679   7.150  0.00  0.00    -0.297 N 
ATOM     15  H   LEU A   7      25.683  79.151   6.250  0.00  0.00    +0.150 HD
BRANCH  14  16
ATOM     16  CA  LEU A   7      27.283  78.242   7.400  0.00  0.00    +0.149 C 
BRANCH  16  17
ATOM     17  C   LEU A   7      28.256  79.418   7.317  0.00  0.00    +0.241 C 
ATOM     18  N   ASP A   8      29.017  79.657   8.385  0.00  0.00    -0.298 N 
ATOM     19  H   ASP A   8      28.943  79.038   9.218  0.00  0.00    +0.150 HD
ATOM     20  O   LEU A   7      28.321  80.093   6.289  0.00  0.00    -0.273 OA
BRANCH  18  21
ATOM     21  CA  ASP A   8      29.954  80.778   8.399  0.00  0.00    +0.148 C 
BRANCH  21  22
ATOM     22  C   ASP A   8      31.311  80.360   7.840  0.00  0.00    +0.227 C 
ATOM     23  O   ASP A   8      31.466  79.233   7.363  0.00  0.00    -0.286 OA
ENDBRANCH  21  22
BRANCH  21  24
ATOM     24  CB  ASP A   8      30.107  81.346   9.821  0.00  0.00    +0.142 C 
BRANCH  24  25
ATOM     25  CG  ASP A   8      30.893  80.435  10.751  0.00  0.00    +0.367 C 
ATOM     26  OD2 ASP A   8      30.942  80.742  11.958  0.00  0.00    -0.246 OA
ATOM     27  OD1 ASP A   8      31.461  79.421  10.292  0.00  0.00    -0.246 OA
ENDBRANCH  24  25
ENDBRANCH  21  24
ENDBRANCH  18  21
ENDBRANCH  16  17
BRANCH  16  28
ATOM     28  CB  LEU A   7      27.711  77.196   6.366  0.00  0.00    +0.029 C 
BRANCH  28  29
ATOM     29  CG  LEU A   7      27.786  75.714   6.743  0.00  0.00    +0.002 C 
ATOM     30  CD2 LEU A   7      28.653  75.515   7.978  0.00  0.00    +0.000 C 
ATOM     31  CD1 LEU A   7      28.372  74.944   5.574  0.00  0.00    +0.000 C 
ENDBRANCH  28  29
ENDBRANCH  16  28
ENDBRANCH  14  16
ENDBRANCH  11  12
BRANCH  11  32
ATOM     32  CB  MET A   6      23.521  80.554   7.886  0.00  0.00    +0.041 C 
BRANCH  32  33
ATOM     33  CG  MET A   6      22.162  81.208   7.720  0.00  0.00    +0.060 C 
BRANCH  33  34
ATOM     34  SD  MET A   6      21.585  81.182   6.027  0.00  0.00    -0.139 S 
ATOM     35  CE  MET A   6      22.569  82.463   5.319  0.00  0.00    +0.069 C 
ENDBRANCH  33  34
ENDBRANCH  32  33
ENDBRANCH  11  32
ENDBRANCH   8  11
ENDBRANCH   6   7
BRANCH   6  36
ATOM     36  CB  CYS A   5      20.813  75.664   9.239  0.00  0.00    +0.098 C 
ATOM     37  SG  CYS A   5      19.638  74.925  10.417  0.00  0.00    -0.080 S 
ENDBRANCH   6  36
ENDBRANCH   4   6
ENDBRANCH   1   2
BRANCH   1  39
ATOM     38  C   ARG A   3      17.388  77.112   5.059  0.00  0.00    +0.241 C 
ATOM     39  N   ASN A   4      17.033  76.836   6.314  0.00  0.00    -0.297 N 
ATOM     40  H   ASN A   4      16.793  75.857   6.572  0.00  0.00    +0.150 HD
ATOM     41  O   ARG A   3      17.786  78.228   4.707  0.00  0.00    -0.273 OA
BRANCH  38  42
ATOM     42  CA  ARG A   3      17.267  75.974   4.046  0.00  0.00    +0.149 C 
BRANCH  42  45
ATOM     43  C   ALA A   2      18.269  74.235   5.438  0.00  0.00    +0.241 C 
ATOM     44  O   ALA A   2      19.306  74.879   5.588  0.00  0.00    -0.273 OA
ATOM     45  N   ARG A   3      17.235  74.675   4.719  0.00  0.00    -0.297 N 
ATOM     46  H   ARG A   3      16.386  74.081   4.635  0.00  0.00    +0.150 HD
BRANCH  43  47
ATOM     47  CA  ALA A   2      18.115  72.874   6.093  0.00  0.00    +0.149 C 
ATOM     48  CB  ALA A   2      18.545  71.775   5.114  0.00  0.00    +0.031 C 
BRANCH  47  51
ATOM     49  C   ALA A   1      16.194  73.449   7.481  0.00  0.00    +0.238 C 
ATOM     50  O   ALA A   1      16.776  74.429   7.931  0.00  0.00    -0.274 OA
ATOM     51  N   ALA A   2      16.738  72.647   6.566  0.00  0.00    -0.297 N 
ATOM     52  H   ALA A   2      16.186  71.854   6.182  0.00  0.00    +0.150 HD
BRANCH  49  53
ATOM     53  CA  ALA A   1      14.794  73.120   7.972  0.00  0.00    +0.145 C 
ATOM     54  CB  ALA A   1      13.754  73.591   6.953  0.00  0.00    +0.028 C 
BRANCH  53  55
ATOM     55  N   ALA A   1      14.634  73.839   9.232  0.00  0.00    -0.238 NA
ATOM     56  H   ALA A   1      15.357  74.537   9.499  0.00  0.00    +0.142 HD
ENDBRANCH  53  55
ENDBRANCH  49  53
ENDBRANCH  47  51
ENDBRANCH  43  47
ENDBRANCH  42  45
BRANCH  42  57
ATOM     57  CB  ARG A   3      15.993  76.176   3.216  0.00  0.00    +0.033 C 
BRANCH  57  58
ATOM     58  CG  ARG A   3      14.737  76.360   4.064  0.00  0.00    +0.045 C 
BRANCH  58  59
ATOM     59  CD  ARG A   3      13.474  76.683   3.250  0.00  0.00    +0.174 C 
BRANCH  59  60
ATOM     60  NE  ARG A   3      12.308  76.606   4.127  0.00  0.00    -0.265 N 
ATOM     61  HE  ARG A   3      11.956  77.487   4.553  0.00  0.00    +0.259 HD
ATOM     62  CZ  ARG A   3      11.671  75.475   4.412  0.00  0.00    +0.342 C 
ATOM     63  NH2 ARG A   3      10.668  75.471   5.279  0.00  0.00    -0.292 N 
ATOM     64 HH21 ARG A   3      10.376  76.356   5.740  0.00  0.00    +0.255 HD
ATOM     65 HH22 ARG A   3      10.173  74.583   5.498  0.00  0.00    +0.255 HD
ATOM     66  NH1 ARG A   3      12.081  74.335   3.868  0.00  0.00    -0.292 N 
ATOM     67 HH11 ARG A   3      11.586  73.447   4.087  0.00  0.00    +0.255 HD
ATOM     68 HH12 ARG A   3      12.897  74.330   3.223  0.00  0.00    +0.255 HD
ENDBRANCH  59  60
ENDBRANCH  58  59
ENDBRANCH  57  58
ENDBRANCH  42  57
ENDBRANCH  38  42
ENDBRANCH   1  39
BRANCH   1  69
ATOM     69  CB  ASN A   4      15.639  77.796   8.099  0.00  0.00    +0.114 C 
BRANCH  69  70
ATOM     70  CG  ASN A   4      14.469  78.364   7.297  0.00  0.00    +0.222 C 
ATOM     71  ND2 ASN A   4      13.257  77.890   7.588  0.00  0.00    -0.329 N 
ATOM     72 HD21 ASN A   4      13.145  77.170   8.330  0.00  0.00    +0.145 HD
ATOM     73 HD22 ASN A   4      12.424  78.240   7.073  0.00  0.00    +0.145 HD
ATOM     74  OD1 ASN A   4      14.656  79.219   6.425  0.00  0.00    -0.275 OA
ENDBRANCH  69  70
ENDBRANCH   1  69
TORSDOF 30
REMARK  Name = ../refined-set-2016/3zc5/3zc5_pocket.pdb
REMARK  226 active torsions:
REMARK  status: ('A' for Active; 'I' for Inactive)
REMARK    1  A    between atoms: _1  and  _3
REMARK    2  A    between atoms: _3  and  _4
REMARK    3  A    between atoms: _3  and  _6
REMARK    4  A    between atoms: _9  and  _11
REMARK    5  A    between atoms: _11  and  _12
REMARK    6  A    between atoms: _11  and  _14
REMARK    7  A    between atoms: _14  and  _15
REMARK    8  A    between atoms: _18  and  _20
REMARK    9  A    between atoms: _20  and  _21
REMARK   10  A    between atoms: _23  and  _25
REMARK   11  A    between atoms: _25  and  _26
REMARK   12  A    between atoms: _25  and  _28
REMARK   13  A    between atoms: _28  and  _29
REMARK   14  A    between atoms: _29  and  _30
REMARK   15  A    between atoms: _30  and  _31
REMARK   16  A    between atoms: _40  and  _42
REMARK   17  A    between atoms: _42  and  _43
REMARK   18  A    between atoms: _45  and  _47
REMARK   19  A    between atoms: _47  and  _48
REMARK   20  A    between atoms: _47  and  _50
REMARK   21  A    between atoms: _52  and  _54
REMARK   22  A    between atoms: _54  and  _55
REMARK   23  A    between atoms: _54  and  _57
REMARK   24  A    between atoms: _60  and  _62
REMARK   25  A    between atoms: _62  and  _63
REMARK   26  A    between atoms: _62  and  _65
REMARK   27  A    between atoms: _65  and  _66
REMARK   28  A    between atoms: _71  and  _72
REMARK   29  A    between atoms: _74  and  _76
REMARK   30  A    between atoms: _76  and  _77
REMARK   31  A    between atoms: _76  and  _79
REMARK   32  A    between atoms: _79  and  _80
REMARK   33  A    between atoms: _85  and  _87
REMARK   34  A    between atoms: _87  and  _88
REMARK   35  A    between atoms: _90  and  _92
REMARK   36  A    between atoms: _92  and  _93
REMARK   37  A    between atoms: _92  and  _95
REMARK   38  A    between atoms: _95  and  _96
REMARK   39  A    between atoms: _101  and  _103
REMARK   40  A    between atoms: _103  and  _104
REMARK   41  A    between atoms: _103  and  _106
REMARK   42  A    between atoms: _108  and  _110
REMARK   43  A    between atoms: _110  and  _111
REMARK   44  A    between atoms: _114  and  _116
REMARK   45  A    between atoms: _116  and  _117
REMARK   46  A    between atoms: _116  and  _119
REMARK   47  A    between atoms: _122  and  _124
REMARK   48  A    between atoms: _124  and  _125
REMARK   49  A    between atoms: _124  and  _127
REMARK   50  A    between atoms: _127  and  _128
REMARK   51  A    between atoms: _128  and  _129
REMARK   52  A    between atoms: _129  and  _130
REMARK   53  A    between atoms: _130  and  _131
REMARK   54  A    between atoms: _135  and  _137
REMARK   55  A    between atoms: _137  and  _138
REMARK   56  A    between atoms: _137  and  _140
REMARK   57  A    between atoms: _140  and  _141
REMARK   58  A    between atoms: _143  and  _145
REMARK   59  A    between atoms: _145  and  _146
REMARK   60  A    between atoms: _145  and  _148
REMARK   61  A    between atoms: _148  and  _149
REMARK   62  A    between atoms: _149  and  _150
REMARK   63  A    between atoms: _152  and  _154
REMARK   64  A    between atoms: _154  and  _155
REMARK   65  A    between atoms: _154  and  _157
REMARK   66  A    between atoms: _157  and  _158
REMARK   67  A    between atoms: _161  and  _163
REMARK   68  A    between atoms: _163  and  _164
REMARK   69  A    between atoms: _163  and  _166
REMARK   70  A    between atoms: _166  and  _167
REMARK   71  A    between atoms: _169  and  _171
REMARK   72  A    between atoms: _171  and  _172
REMARK   73  A    between atoms: _171  and  _174
REMARK   74  A    between atoms: _177  and  _179
REMARK   75  A    between atoms: _179  and  _180
REMARK   76  A    between atoms: _179  and  _182
REMARK   77  A    between atoms: _185  and  _187
REMARK   78  A    between atoms: _187  and  _188
REMARK   79  A    between atoms: _187  and  _190
REMARK   80  A    between atoms: _190  and  _191
REMARK   81  A    between atoms: _195  and  _196
REMARK   82  A    between atoms: _201  and  _203
REMARK   83  A    between atoms: _203  and  _204
REMARK   84  A    between atoms: _203  and  _206
REMARK   85  A    between atoms: _206  and  _207
REMARK   86  A    between atoms: _212  and  _213
REMARK   87  A    between atoms: _215  and  _217
REMARK   88  A    between atoms: _217  and  _218
REMARK   89  A    between atoms: _217  and  _220
REMARK   90  A    between atoms: _220  and  _221
REMARK   91  A    between atoms: _221  and  _222
REMARK   92  A    between atoms: _224  and  _226
REMARK   93  A    between atoms: _226  and  _227
REMARK   94  A    between atoms: _226  and  _229
REMARK   95  A    between atoms: _229  and  _230
REMARK   96  A    between atoms: _230  and  _231
REMARK   97  A    between atoms: _231  and  _232
REMARK   98  A    between atoms: _232  and  _233
REMARK   99  A    between atoms: _237  and  _239
REMARK  100  A    between atoms: _239  and  _240
REMARK  101  A    between atoms: _239  and  _242
REMARK  102  A    between atoms: _242  and  _243
REMARK  103  A    between atoms: _248  and  _250
REMARK  104  A    between atoms: _250  and  _251
REMARK  105  A    between atoms: _253  and  _255
REMARK  106  A    between atoms: _255  and  _256
REMARK  107  A    between atoms: _255  and  _258
REMARK  108  A    between atoms: _258  and  _259
REMARK  109  A    between atoms: _262  and  _264
REMARK  110  A    between atoms: _264  and  _265
REMARK  111  A    between atoms: _264  and  _267
REMARK  112  A    between atoms: _267  and  _268
REMARK  113  A    between atoms: _271  and  _273
REMARK  114  A    between atoms: _273  and  _274
REMARK  115  A    between atoms: _273  and  _276
REMARK  116  A    between atoms: _276  and  _277
REMARK  117  A    between atoms: _277  and  _278
REMARK  118  A    between atoms: _278  and  _279
REMARK  119  A    between atoms: _288  and  _290
REMARK  120  A    between atoms: _290  and  _291
REMARK  121  A    between atoms: _290  and  _293
REMARK  122  A    between atoms: _293  and  _294
REMARK  123  A    between atoms: _299  and  _301
REMARK  124  A    between atoms: _301  and  _302
REMARK  125  A    between atoms: _301  and  _304
REMARK  126  A    between atoms: _304  and  _305
REMARK  127  A    between atoms: _311  and  _313
REMARK  128  A    between atoms: _313  and  _314
REMARK  129  A    between atoms: _313  and  _316
REMARK  130  A    between atoms: _316  and  _317
REMARK  131  A    between atoms: _322  and  _324
REMARK  132  A    between atoms: _324  and  _325
REMARK  133  A    between atoms: _324  and  _327
REMARK  134  A    between atoms: _327  and  _328
REMARK  135  A    between atoms: _331  and  _333
REMARK  136  A    between atoms: _333  and  _334
REMARK  137  A    between atoms: _337  and  _339
REMARK  138  A    between atoms: _339  and  _340
REMARK  139  A    between atoms: _343  and  _345
REMARK  140  A    between atoms: _345  and  _346
REMARK  141  A    between atoms: _345  and  _348
REMARK  142  A    between atoms: _348  and  _349
REMARK  143  A    between atoms: _349  and  _350
REMARK  144  A    between atoms: _350  and  _351
REMARK  145  A    between atoms: _360  and  _362
REMARK  146  A    between atoms: _362  and  _363
REMARK  147  A    between atoms: _362  and  _365
REMARK  148  A    between atoms: _365  and  _366
REMARK  149  A    between atoms: _371  and  _373
REMARK  150  A    between atoms: _373  and  _374
REMARK  151  A    between atoms: _373  and  _376
REMARK  152  A    between atoms: _378  and  _380
REMARK  153  A    between atoms: _380  and  _381
REMARK  154  A    between atoms: _380  and  _383
REMARK  155  A    between atoms: _383  and  _384
REMARK  156  A    between atoms: _384  and  _385
REMARK  157  A    between atoms: _387  and  _389
REMARK  158  A    between atoms: _389  and  _390
REMARK  159  A    between atoms: _389  and  _392
REMARK  160  A    between atoms: _392  and  _393
REMARK  161  A    between atoms: _396  and  _398
REMARK  162  A    between atoms: _398  and  _399
REMARK  163  A    between atoms: _398  and  _401
REMARK  164  A    between atoms: _401  and  _402
REMARK  165  A    between atoms: _405  and  _407
REMARK  166  A    between atoms: _407  and  _408
REMARK  167  A    between atoms: _407  and  _410
REMARK  168  A    between atoms: _410  and  _411
REMARK  169  A    between atoms: _411  and  _412
REMARK  170  A    between atoms: _412  and  _413
REMARK  171  A    between atoms: _413  and  _414
REMARK  172  A    between atoms: _418  and  _420
REMARK  173  A    between atoms: _420  and  _421
REMARK  174  A    between atoms: _420  and  _423
REMARK  175  A    between atoms: _426  and  _428
REMARK  176  A    between atoms: _428  and  _429
REMARK  177  A    between atoms: _432  and  _434
REMARK  178  A    between atoms: _434  and  _435
REMARK  179  A    between atoms: _434  and  _437
REMARK  180  A    between atoms: _437  and  _438
REMARK  181  A    between atoms: _441  and  _443
REMARK  182  A    between atoms: _443  and  _444
REMARK  183  A    between atoms: _443  and  _446
REMARK  184  A    between atoms: _446  and  _447
REMARK  185  A    between atoms: _453  and  _455
REMARK  186  A    between atoms: _455  and  _456
REMARK  187  A    between atoms: _455  and  _458
REMARK  188  A    between atoms: _458  and  _459
REMARK  189  A    between atoms: _462  and  _464
REMARK  190  A    between atoms: _464  and  _465
REMARK  191  A    between atoms: _468  and  _470
REMARK  192  A    between atoms: _470  and  _471
REMARK  193  A    between atoms: _470  and  _473
REMARK  194  A    between atoms: _473  and  _474
REMARK  195  A    between atoms: _474  and  _475
REMARK  196  A    between atoms: _475  and  _476
REMARK  197  A    between atoms: _485  and  _487
REMARK  198  A    between atoms: _487  and  _488
REMARK  199  A    between atoms: _487  and  _490
REMARK  200  A    between atoms: _490  and  _491
REMARK  201  A    between atoms: _494  and  _496
REMARK  202  A    between atoms: _496  and  _497
REMARK  203  A    between atoms: _496  and  _499
REMARK  204  A    between atoms: _499  and  _500
REMARK  205  A    between atoms: _500  and  _501
REMARK  206  A    between atoms: _503  and  _505
REMARK  207  A    between atoms: _505  and  _506
REMARK  208  A    between atoms: _505  and  _508
REMARK  209  A    between atoms: _508  and  _509
REMARK  210  A    between atoms: _514  and  _515
REMARK  211  A    between atoms: _517  and  _519
REMARK  212  A    between atoms: _519  and  _520
REMARK  213  A    between atoms: _519  and  _522
REMARK  214  A    between atoms: _522  and  _523
REMARK  215  A    between atoms: _526  and  _528
REMARK  216  A    between atoms: _528  and  _529
REMARK  217  A    between atoms: _528  and  _531
REMARK  218  A    between atoms: _531  and  _532
REMARK  219  A    between atoms: _532  and  _533
REMARK  220  A    between atoms: _533  and  _534
REMARK  221  A    between atoms: _534  and  _535
REMARK  222  A    between atoms: _539  and  _541
REMARK  223  A    between atoms: _541  and  _542
REMARK  224  A    between atoms: _541  and  _544
REMARK  225  A    between atoms: _544  and  _545
REMARK  226  A    between atoms: _550  and  _551
REMARK                            x       y       z     vdW  Elec       q    Type
REMARK                         _______ _______ _______ _____ _____    ______ ____
ROOT
ATOM      1  CA  ALA A   3      18.861  80.792  11.706  0.00  0.00    +0.149 C 
ATOM      2  CB  ALA A   3      19.633  81.162  10.444  0.00  0.00    +0.031 C 
ENDROOT
BRANCH   1   5
ATOM      3  C   VAL A   2      19.986  79.207  13.177  0.00  0.00    +0.241 C 
ATOM      4  O   VAL A   2      20.355  80.092  13.947  0.00  0.00    -0.273 OA
ATOM      5  N   ALA A   3      19.212  79.437  12.119  0.00  0.00    -0.297 N 
ATOM      6  H   ALA A   3      18.848  78.630  11.573  0.00  0.00    +0.150 HD
BRANCH   3   7
ATOM      7  CA  VAL A   2      20.423  77.771  13.399  0.00  0.00    +0.148 C 
BRANCH   7   9
ATOM      8  C   LYS A   1      22.622  78.205  12.497  0.00  0.00    +0.238 C 
ATOM      9  N   VAL A   2      21.874  77.805  13.519  0.00  0.00    -0.297 N 
ATOM     10  H   VAL A   2      22.327  77.515  14.409  0.00  0.00    +0.150 HD
ATOM     11  O   LYS A   1      22.167  78.348  11.369  0.00  0.00    -0.274 OA
BRANCH   8  12
ATOM     12  CA  LYS A   1      24.093  78.500  12.778  0.00  0.00    +0.145 C 
BRANCH  12  13
ATOM     13  N   LYS A   1      24.936  77.659  11.933  0.00  0.00    -0.238 NA
ATOM     14  H   LYS A   1      24.975  77.849  10.911  0.00  0.00    +0.142 HD
ENDBRANCH  12  13
BRANCH  12  15
ATOM     15  CB  LYS A   1      24.351  79.983  12.497  0.00  0.00    +0.026 C 
BRANCH  15  16
ATOM     16  CG  LYS A   1      25.818  80.395  12.468  0.00  0.00    -0.000 C 
BRANCH  16  17
ATOM     17  CD  LYS A   1      26.445  80.353  13.844  0.00  0.00    -0.024 C 
BRANCH  17  18
ATOM     18  CE  LYS A   1      27.841  80.952  13.830  0.00  0.00    -0.086 C 
BRANCH  18  19
ATOM     19  NZ  LYS A   1      28.447  80.886  15.179  0.00  0.00    +0.380 N 
ATOM     20  HZ1 LYS A   1      27.857  81.419  15.849  0.00  0.00    -0.089 HD
ATOM     21  HZ2 LYS A   1      28.508  79.893  15.482  0.00  0.00    -0.089 HD
ATOM     22  HZ3 LYS A   1      29.401  81.300  15.150  0.00  0.00    -0.089 HD
ENDBRANCH  18  19
ENDBRANCH  17  18
ENDBRANCH  16  17
ENDBRANCH  15  16
ENDBRANCH  12  15
ENDBRANCH   8  12
ENDBRANCH   7   9
BRANCH   7  23
ATOM     23  CB  VAL A   2      19.750  77.232  14.686  0.00  0.00    +0.027 C 
ATOM     24  CG2 VAL A   2      20.176  75.783  14.933  0.00  0.00    +0.002 C 
ATOM     25  CG1 VAL A   2      18.230  77.312  14.552  0.00  0.00    +0.002 C 
ENDBRANCH   7  23
ENDBRANCH   3   7
ENDBRANCH   1   5
BRANCH   1  26
ATOM     26  C   ALA A   3      17.359  80.941  11.465  0.00  0.00    +0.241 C 
ATOM     27  O   ALA A   3      16.560  80.152  11.956  0.00  0.00    -0.273 OA
ATOM     28  N   ASP A   4      16.982  81.964  10.707  0.00  0.00    -0.297 N 
ATOM     29  H   ASP A   4      17.709  82.586  10.300  0.00  0.00    +0.150 HD
BRANCH  28  30
ATOM     30  CA  ASP A   4      15.577  82.241  10.429  0.00  0.00    +0.160 C 
BRANCH  30  31
ATOM     31  C   ASP A   4      14.693  82.163  11.676  0.00  0.00    +0.241 C 
ATOM     32  N   PHE A   5      15.054  82.915  12.715  0.00  0.00    -0.298 N 
ATOM     33  H   PHE A   5      15.957  83.429  12.677  0.00  0.00    +0.150 HD
ATOM     34  O   ASP A   4      13.703  81.425  11.693  0.00  0.00    -0.273 OA
BRANCH  32  35
ATOM     35  CA  PHE A   5      14.216  83.038  13.909  0.00  0.00    +0.141 C 
BRANCH  35  36
ATOM     36  C   PHE A   5      14.363  84.443  14.498  0.00  0.00    +0.227 C 
ATOM     37  O   PHE A   5      15.362  85.125  14.258  0.00  0.00    -0.286 OA
ENDBRANCH  35  36
BRANCH  35  38
ATOM     38  CB  PHE A   5      14.603  81.986  14.962  0.00  0.00    +0.054 C 
BRANCH  38  39
ATOM     39  CG  PHE A   5      15.879  82.298  15.695  0.00  0.00    -0.020 A 
ATOM     40  CD2 PHE A   5      15.862  83.086  16.839  0.00  0.00    -0.004 A 
ATOM     41  CE2 PHE A   5      17.039  83.421  17.489  0.00  0.00    -0.000 A 
ATOM     42  CZ  PHE A   5      18.250  82.966  16.999  0.00  0.00    -0.000 A 
ATOM     43  CE1 PHE A   5      18.282  82.175  15.862  0.00  0.00    -0.000 A 
ATOM     44  CD1 PHE A   5      17.098  81.844  15.216  0.00  0.00    -0.004 A 
ENDBRANCH  38  39
ENDBRANCH  35  38
ENDBRANCH  32  35
ENDBRANCH  30  31
BRANCH  30  45
ATOM     45  CB  ASP A   4      15.049  81.272   9.366  0.00  0.00    +0.143 C 
BRANCH  45  46
ATOM     46  CG  ASP A   4      13.653  81.637   8.883  0.00  0.00    +0.367 C 
ATOM     47  OD2 ASP A   4      13.295  82.835   8.917  0.00  0.00    -0.246 OA
ATOM     48  OD1 ASP A   4      12.912  80.726   8.466  0.00  0.00    -0.246 OA
ENDBRANCH  45  46
ENDBRANCH  30  45
ENDBRANCH  28  30
ENDBRANCH   1  26
TORSDOF 20
REMARK  Name = ../refined-set-2016/3zc5/3zc5_pocket.pdb
REMARK  226 active torsions:
REMARK  status: ('A' for Active; 'I' for Inactive)
REMARK    1  A    between atoms: _1  and  _3
REMARK    2  A    between atoms: _3  and  _4
REMARK    3  A    between atoms: _3  and  _6
REMARK    4  A    between atoms: _9  and  _11
REMARK    5  A    between atoms: _11  and  _12
REMARK    6  A    between atoms: _11  and  _14
REMARK    7  A    between atoms: _14  and  _15
REMARK    8  A    between atoms: _18  and  _20
REMARK    9  A    between atoms: _20  and  _21
REMARK   10  A    between atoms: _23  and  _25
REMARK   11  A    between atoms: _25  and  _26
REMARK   12  A    between atoms: _25  and  _28
REMARK   13  A    between atoms: _28  and  _29
REMARK   14  A    between atoms: _29  and  _30
REMARK   15  A    between atoms: _30  and  _31
REMARK   16  A    between atoms: _40  and  _42
REMARK   17  A    between atoms: _42  and  _43
REMARK   18  A    between atoms: _45  and  _47
REMARK   19  A    between atoms: _47  and  _48
REMARK   20  A    between atoms: _47  and  _50
REMARK   21  A    between atoms: _52  and  _54
REMARK   22  A    between atoms: _54  and  _55
REMARK   23  A    between atoms: _54  and  _57
REMARK   24  A    between atoms: _60  and  _62
REMARK   25  A    between atoms: _62  and  _63
REMARK   26  A    between atoms: _62  and  _65
REMARK   27  A    between atoms: _65  and  _66
REMARK   28  A    between atoms: _71  and  _72
REMARK   29  A    between atoms: _74  and  _76
REMARK   30  A    between atoms: _76  and  _77
REMARK   31  A    between atoms: _76  and  _79
REMARK   32  A    between atoms: _79  and  _80
REMARK   33  A    between atoms: _85  and  _87
REMARK   34  A    between atoms: _87  and  _88
REMARK   35  A    between atoms: _90  and  _92
REMARK   36  A    between atoms: _92  and  _93
REMARK   37  A    between atoms: _92  and  _95
REMARK   38  A    between atoms: _95  and  _96
REMARK   39  A    between atoms: _101  and  _103
REMARK   40  A    between atoms: _103  and  _104
REMARK   41  A    between atoms: _103  and  _106
REMARK   42  A    between atoms: _108  and  _110
REMARK   43  A    between atoms: _110  and  _111
REMARK   44  A    between atoms: _114  and  _116
REMARK   45  A    between atoms: _116  and  _117
REMARK   46  A    between atoms: _116  and  _119
REMARK   47  A    between atoms: _122  and  _124
REMARK   48  A    between atoms: _124  and  _125
REMARK   49  A    between atoms: _124  and  _127
REMARK   50  A    between atoms: _127  and  _128
REMARK   51  A    between atoms: _128  and  _129
REMARK   52  A    between atoms: _129  and  _130
REMARK   53  A    between atoms: _130  and  _131
REMARK   54  A    between atoms: _135  and  _137
REMARK   55  A    between atoms: _137  and  _138
REMARK   56  A    between atoms: _137  and  _140
REMARK   57  A    between atoms: _140  and  _141
REMARK   58  A    between atoms: _143  and  _145
REMARK   59  A    between atoms: _145  and  _146
REMARK   60  A    between atoms: _145  and  _148
REMARK   61  A    between atoms: _148  and  _149
REMARK   62  A    between atoms: _149  and  _150
REMARK   63  A    between atoms: _152  and  _154
REMARK   64  A    between atoms: _154  and  _155
REMARK   65  A    between atoms: _154  and  _157
REMARK   66  A    between atoms: _157  and  _158
REMARK   67  A    between atoms: _161  and  _163
REMARK   68  A    between atoms: _163  and  _164
REMARK   69  A    between atoms: _163  and  _166
REMARK   70  A    between atoms: _166  and  _167
REMARK   71  A    between atoms: _169  and  _171
REMARK   72  A    between atoms: _171  and  _172
REMARK   73  A    between atoms: _171  and  _174
REMARK   74  A    between atoms: _177  and  _179
REMARK   75  A    between atoms: _179  and  _180
REMARK   76  A    between atoms: _179  and  _182
REMARK   77  A    between atoms: _185  and  _187
REMARK   78  A    between atoms: _187  and  _188
REMARK   79  A    between atoms: _187  and  _190
REMARK   80  A    between atoms: _190  and  _191
REMARK   81  A    between atoms: _195  and  _196
REMARK   82  A    between atoms: _201  and  _203
REMARK   83  A    between atoms: _203  and  _204
REMARK   84  A    between atoms: _203  and  _206
REMARK   85  A    between atoms: _206  and  _207
REMARK   86  A    between atoms: _212  and  _213
REMARK   87  A    between atoms: _215  and  _217
REMARK   88  A    between atoms: _217  and  _218
REMARK   89  A    between atoms: _217  and  _220
REMARK   90  A    between atoms: _220  and  _221
REMARK   91  A    between atoms: _221  and  _222
REMARK   92  A    between atoms: _224  and  _226
REMARK   93  A    between atoms: _226  and  _227
REMARK   94  A    between atoms: _226  and  _229
REMARK   95  A    between atoms: _229  and  _230
REMARK   96  A    between atoms: _230  and  _231
REMARK   97  A    between atoms: _231  and  _232
REMARK   98  A    between atoms: _232  and  _233
REMARK   99  A    between atoms: _237  and  _239
REMARK  100  A    between atoms: _239  and  _240
REMARK  101  A    between atoms: _239  and  _242
REMARK  102  A    between atoms: _242  and  _243
REMARK  103  A    between atoms: _248  and  _250
REMARK  104  A    between atoms: _250  and  _251
REMARK  105  A    between atoms: _253  and  _255
REMARK  106  A    between atoms: _255  and  _256
REMARK  107  A    between atoms: _255  and  _258
REMARK  108  A    between atoms: _258  and  _259
REMARK  109  A    between atoms: _262  and  _264
REMARK  110  A    between atoms: _264  and  _265
REMARK  111  A    between atoms: _264  and  _267
REMARK  112  A    between atoms: _267  and  _268
REMARK  113  A    between atoms: _271  and  _273
REMARK  114  A    between atoms: _273  and  _274
REMARK  115  A    between atoms: _273  and  _276
REMARK  116  A    between atoms: _276  and  _277
REMARK  117  A    between atoms: _277  and  _278
REMARK  118  A    between atoms: _278  and  _279
REMARK  119  A    between atoms: _288  and  _290
REMARK  120  A    between atoms: _290  and  _291
REMARK  121  A    between atoms: _290  and  _293
REMARK  122  A    between atoms: _293  and  _294
REMARK  123  A    between atoms: _299  and  _301
REMARK  124  A    between atoms: _301  and  _302
REMARK  125  A    between atoms: _301  and  _304
REMARK  126  A    between atoms: _304  and  _305
REMARK  127  A    between atoms: _311  and  _313
REMARK  128  A    between atoms: _313  and  _314
REMARK  129  A    between atoms: _313  and  _316
REMARK  130  A    between atoms: _316  and  _317
REMARK  131  A    between atoms: _322  and  _324
REMARK  132  A    between atoms: _324  and  _325
REMARK  133  A    between atoms: _324  and  _327
REMARK  134  A    between atoms: _327  and  _328
REMARK  135  A    between atoms: _331  and  _333
REMARK  136  A    between atoms: _333  and  _334
REMARK  137  A    between atoms: _337  and  _339
REMARK  138  A    between atoms: _339  and  _340
REMARK  139  A    between atoms: _343  and  _345
REMARK  140  A    between atoms: _345  and  _346
REMARK  141  A    between atoms: _345  and  _348
REMARK  142  A    between atoms: _348  and  _349
REMARK  143  A    between atoms: _349  and  _350
REMARK  144  A    between atoms: _350  and  _351
REMARK  145  A    between atoms: _360  and  _362
REMARK  146  A    between atoms: _362  and  _363
REMARK  147  A    between atoms: _362  and  _365
REMARK  148  A    between atoms: _365  and  _366
REMARK  149  A    between atoms: _371  and  _373
REMARK  150  A    between atoms: _373  and  _374
REMARK  151  A    between atoms: _373  and  _376
REMARK  152  A    between atoms: _378  and  _380
REMARK  153  A    between atoms: _380  and  _381
REMARK  154  A    between atoms: _380  and  _383
REMARK  155  A    between atoms: _383  and  _384
REMARK  156  A    between atoms: _384  and  _385
REMARK  157  A    between atoms: _387  and  _389
REMARK  158  A    between atoms: _389  and  _390
REMARK  159  A    between atoms: _389  and  _392
REMARK  160  A    between atoms: _392  and  _393
REMARK  161  A    between atoms: _396  and  _398
REMARK  162  A    between atoms: _398  and  _399
REMARK  163  A    between atoms: _398  and  _401
REMARK  164  A    between atoms: _401  and  _402
REMARK  165  A    between atoms: _405  and  _407
REMARK  166  A    between atoms: _407  and  _408
REMARK  167  A    between atoms: _407  and  _410
REMARK  168  A    between atoms: _410  and  _411
REMARK  169  A    between atoms: _411  and  _412
REMARK  170  A    between atoms: _412  and  _413
REMARK  171  A    between atoms: _413  and  _414
REMARK  172  A    between atoms: _418  and  _420
REMARK  173  A    between atoms: _420  and  _421
REMARK  174  A    between atoms: _420  and  _423
REMARK  175  A    between atoms: _426  and  _428
REMARK  176  A    between atoms: _428  and  _429
REMARK  177  A    between atoms: _432  and  _434
REMARK  178  A    between atoms: _434  and  _435
REMARK  179  A    between atoms: _434  and  _437
REMARK  180  A    between atoms: _437  and  _438
REMARK  181  A    between atoms: _441  and  _443
REMARK  182  A    between atoms: _443  and  _444
REMARK  183  A    between atoms: _443  and  _446
REMARK  184  A    between atoms: _446  and  _447
REMARK  185  A    between atoms: _453  and  _455
REMARK  186  A    between atoms: _455  and  _456
REMARK  187  A    between atoms: _455  and  _458
REMARK  188  A    between atoms: _458  and  _459
REMARK  189  A    between atoms: _462  and  _464
REMARK  190  A    between atoms: _464  and  _465
REMARK  191  A    between atoms: _468  and  _470
REMARK  192  A    between atoms: _470  and  _471
REMARK  193  A    between atoms: _470  and  _473
REMARK  194  A    between atoms: _473  and  _474
REMARK  195  A    between atoms: _474  and  _475
REMARK  196  A    between atoms: _475  and  _476
REMARK  197  A    between atoms: _485  and  _487
REMARK  198  A    between atoms: _487  and  _488
REMARK  199  A    between atoms: _487  and  _490
REMARK  200  A    between atoms: _490  and  _491
REMARK  201  A    between atoms: _494  and  _496
REMARK  202  A    between atoms: _496  and  _497
REMARK  203  A    between atoms: _496  and  _499
REMARK  204  A    between atoms: _499  and  _500
REMARK  205  A    between atoms: _500  and  _501
REMARK  206  A    between atoms: _503  and  _505
REMARK  207  A    between atoms: _505  and  _506
REMARK  208  A    between atoms: _505  and  _508
REMARK  209  A    between atoms: _508  and  _509
REMARK  210  A    between atoms: _514  and  _515
REMARK  211  A    between atoms: _517  and  _519
REMARK  212  A    between atoms: _519  and  _520
REMARK  213  A    between atoms: _519  and  _522
REMARK  214  A    between atoms: _522  and  _523
REMARK  215  A    between atoms: _526  and  _528
REMARK  216  A    between atoms: _528  and  _529
REMARK  217  A    between atoms: _528  and  _531
REMARK  218  A    between atoms: _531  and  _532
REMARK  219  A    between atoms: _532  and  _533
REMARK  220  A    between atoms: _533  and  _534
REMARK  221  A    between atoms: _534  and  _535
REMARK  222  A    between atoms: _539  and  _541
REMARK  223  A    between atoms: _541  and  _542
REMARK  224  A    between atoms: _541  and  _544
REMARK  225  A    between atoms: _544  and  _545
REMARK  226  A    between atoms: _550  and  _551
REMARK                            x       y       z     vdW  Elec       q    Type
REMARK                         _______ _______ _______ _____ _____    ______ ____
ROOT
ATOM      1  C   ASP A   4      10.885  83.936   6.289  0.00  0.00    +0.241 C 
ATOM      2  O   ASP A   4      11.169  82.861   6.815  0.00  0.00    -0.273 OA
ATOM      3  N   MET A   5      10.364  84.025   5.070  0.00  0.00    -0.297 N 
ATOM      4  H   MET A   5       9.971  84.935   4.755  0.00  0.00    +0.150 HD
ENDROOT
BRANCH   3   5
ATOM      5  CA  MET A   5      10.327  82.887   4.162  0.00  0.00    +0.149 C 
BRANCH   5   6
ATOM      6  C   MET A   5      11.332  83.159   3.043  0.00  0.00    +0.241 C 
ATOM      7  N   TYR A   6      12.428  82.399   3.016  0.00  0.00    -0.297 N 
ATOM      8  H   TYR A   6      12.501  81.590   3.666  0.00  0.00    +0.150 HD
ATOM      9  O   MET A   5      11.116  84.048   2.220  0.00  0.00    -0.273 OA
BRANCH   7  10
ATOM     10  CA  TYR A   6      13.531  82.675   2.094  0.00  0.00    +0.153 C 
BRANCH  10  11
ATOM     11  C   TYR A   6      13.543  81.765   0.876  0.00  0.00    +0.241 C 
ATOM     12  N   ASP A   7      12.545  80.894   0.789  0.00  0.00    -0.297 N 
ATOM     13  H   ASP A   7      11.909  80.773   1.603  0.00  0.00    +0.150 HD
ATOM     14  O   TYR A   6      14.446  81.840   0.040  0.00  0.00    -0.273 OA
BRANCH  12  15
ATOM     15  CA  ASP A   7      12.313  80.104  -0.410  0.00  0.00    +0.160 C 
BRANCH  15  16
ATOM     16  C   ASP A   7      10.825  79.781  -0.460  0.00  0.00    +0.241 C 
ATOM     17  O   ASP A   7      10.349  78.879   0.236  0.00  0.00    -0.273 OA
ATOM     18  N   LYS A   8      10.095  80.523  -1.285  0.00  0.00    -0.298 N 
ATOM     19  H   LYS A   8      10.574  81.146  -1.966  0.00  0.00    +0.150 HD
BRANCH  18  20
ATOM     20  CA  LYS A   8       8.639  80.485  -1.258  0.00  0.00    +0.137 C 
BRANCH  20  21
ATOM     21  C   LYS A   8       8.056  79.152  -1.717  0.00  0.00    +0.227 C 
ATOM     22  O   LYS A   8       6.905  78.851  -1.426  0.00  0.00    -0.286 OA
ENDBRANCH  20  21
BRANCH  20  23
ATOM     23  CB  LYS A   8       8.068  81.608  -2.120  0.00  0.00    +0.028 C 
BRANCH  23  24
ATOM     24  CG  LYS A   8       8.520  81.560  -3.565  0.00  0.00    -0.000 C 
BRANCH  24  25
ATOM     25  CD  LYS A   8       7.880  82.683  -4.377  0.00  0.00    -0.024 C 
BRANCH  25  26
ATOM     26  CE  LYS A   8       8.531  82.799  -5.751  0.00  0.00    -0.086 C 
BRANCH  26  27
ATOM     27  NZ  LYS A   8       8.995  81.468  -6.250  0.00  0.00    +0.380 N 
ATOM     28  HZ1 LYS A   8       9.692  81.074  -5.586  0.00  0.00    -0.089 HD
ATOM     29  HZ2 LYS A   8       8.182  80.824  -6.323  0.00  0.00    -0.089 HD
ATOM     30  HZ3 LYS A   8       9.433  81.584  -7.186  0.00  0.00    -0.089 HD
ENDBRANCH  26  27
ENDBRANCH  25  26
ENDBRANCH  24  25
ENDBRANCH  23  24
ENDBRANCH  20  23
ENDBRANCH  18  20
ENDBRANCH  15  16
BRANCH  15  31
ATOM     31  CB  ASP A   7      13.127  78.806  -0.361  0.00  0.00    +0.143 C 
BRANCH  31  32
ATOM     32  CG  ASP A   7      13.029  78.013  -1.643  0.00  0.00    +0.367 C 
ATOM     33  OD2 ASP A   7      13.849  77.096  -1.841  0.00  0.00    -0.246 OA
ATOM     34  OD1 ASP A   7      12.133  78.309  -2.456  0.00  0.00    -0.246 OA
ENDBRANCH  31  32
ENDBRANCH  15  31
ENDBRANCH  12  15
ENDBRANCH  10  11
BRANCH  10  35
ATOM     35  CB  TYR A   6      14.871  82.552   2.816  0.00  0.00    +0.055 C 
BRANCH  35  36
ATOM     36  CG  TYR A   6      15.104  83.605   3.869  0.00  0.00    -0.020 A 
ATOM     37  CD2 TYR A   6      14.885  83.329   5.213  0.00  0.00    -0.001 A 
ATOM     38  CE2 TYR A   6      15.108  84.288   6.186  0.00  0.00    +0.036 A 
ATOM     39  CZ  TYR A   6      15.554  85.542   5.816  0.00  0.00    +0.134 A 
ATOM     40  CE1 TYR A   6      15.778  85.840   4.487  0.00  0.00    +0.036 A 
ATOM     41  CD1 TYR A   6      15.554  84.874   3.524  0.00  0.00    -0.001 A 
BRANCH  39  42
ATOM     42  OH  TYR A   6      15.779  86.498   6.778  0.00  0.00    -0.506 OA
ATOM     43  HH  TYR A   6      14.938  86.675   7.268  0.00  0.00    +0.292 HD
ENDBRANCH  39  42
ENDBRANCH  35  36
ENDBRANCH  10  35
ENDBRANCH   7  10
ENDBRANCH   5   6
BRANCH   5  44
ATOM     44  CB  MET A   5       8.912  82.716   3.581  0.00  0.00    +0.041 C 
BRANCH  44  45
ATOM     45  CG  MET A   5       7.854  82.316   4.610  0.00  0.00    +0.060 C 
BRANCH  45  46
ATOM     46  SD  MET A   5       6.155  82.209   3.949  0.00  0.00    -0.139 S 
ATOM     47  CE  MET A   5       5.758  83.952   3.717  0.00  0.00    +0.069 C 
ENDBRANCH  45  46
ENDBRANCH  44  45
ENDBRANCH   5  44
ENDBRANCH   3   5
BRANCH   1  48
ATOM     48  CA  ASP A   4      11.108  85.253   7.038  0.00  0.00    +0.160 C 
BRANCH  48  51
ATOM     49  C   ARG A   3      11.963  85.850   9.254  0.00  0.00    +0.241 C 
ATOM     50  O   ARG A   3      11.670  87.042   9.133  0.00  0.00    -0.273 OA
ATOM     51  N   ASP A   4      11.792  84.949   8.291  0.00  0.00    -0.297 N 
ATOM     52  H   ASP A   4      12.161  83.988   8.437  0.00  0.00    +0.150 HD
BRANCH  49  53
ATOM     53  CA  ARG A   3      12.561  85.320  10.551  0.00  0.00    +0.149 C 
BRANCH  53  55
ATOM     54  C   ALA A   2      14.758  86.355  10.358  0.00  0.00    +0.241 C 
ATOM     55  N   ARG A   3      13.626  86.193  11.042  0.00  0.00    -0.297 N 
ATOM     56  H   ARG A   3      13.498  86.697  11.942  0.00  0.00    +0.150 HD
ATOM     57  O   ALA A   2      14.971  85.811   9.271  0.00  0.00    -0.273 OA
BRANCH  54  58
ATOM     58  CA  ALA A   2      15.812  87.262  10.987  0.00  0.00    +0.149 C 
ATOM     59  CB  ALA A   2      17.120  86.500  11.151  0.00  0.00    +0.031 C 
BRANCH  58  61
ATOM     60  C   LEU A   1      14.786  88.965  12.398  0.00  0.00    +0.238 C 
ATOM     61  N   ALA A   2      15.363  87.772  12.280  0.00  0.00    -0.297 N 
ATOM     62  H   ALA A   2      15.498  87.188  13.130  0.00  0.00    +0.150 HD
ATOM     63  O   LEU A   1      14.629  89.735  11.444  0.00  0.00    -0.274 OA
BRANCH  60  64
ATOM     64  CA  LEU A   1      14.317  89.357  13.798  0.00  0.00    +0.145 C 
BRANCH  64  65
ATOM     65  N   LEU A   1      14.301  88.223  14.717  0.00  0.00    -0.238 NA
ATOM     66  H   LEU A   1      15.022  88.166  15.465  0.00  0.00    +0.142 HD
ENDBRANCH  64  65
BRANCH  64  67
ATOM     67  CB  LEU A   1      15.217  90.470  14.354  0.00  0.00    +0.026 C 
BRANCH  67  68
ATOM     68  CG  LEU A   1      14.797  91.084  15.694  0.00  0.00    +0.002 C 
ATOM     69  CD2 LEU A   1      15.898  92.006  16.219  0.00  0.00    +0.000 C 
ATOM     70  CD1 LEU A   1      13.495  91.848  15.511  0.00  0.00    +0.000 C 
ENDBRANCH  67  68
ENDBRANCH  64  67
ENDBRANCH  60  64
ENDBRANCH  58  61
ENDBRANCH  54  58
ENDBRANCH  53  55
BRANCH  53  71
ATOM     71  CB  ARG A   3      11.443  85.169  11.589  0.00  0.00    +0.033 C 
BRANCH  71  72
ATOM     72  CG  ARG A   3      10.319  84.241  11.125  0.00  0.00    +0.045 C 
BRANCH  72  73
ATOM     73  CD  ARG A   3       9.191  84.127  12.142  0.00  0.00    +0.174 C 
BRANCH  73  74
ATOM     74  NE  ARG A   3       8.457  85.380  12.288  0.00  0.00    -0.265 N 
ATOM     75  HE  ARG A   3       8.689  85.989  13.099  0.00  0.00    +0.259 HD
ATOM     76  CZ  ARG A   3       7.509  85.794  11.450  0.00  0.00    +0.342 C 
ATOM     77  NH2 ARG A   3       6.890  86.947  11.663  0.00  0.00    -0.292 N 
ATOM     78 HH21 ARG A   3       7.145  87.530  12.486  0.00  0.00    +0.255 HD
ATOM     79 HH22 ARG A   3       6.150  87.269  11.007  0.00  0.00    +0.255 HD
ATOM     80  NH1 ARG A   3       7.176  85.056  10.398  0.00  0.00    -0.292 N 
ATOM     81 HH11 ARG A   3       7.656  84.150  10.225  0.00  0.00    +0.255 HD
ATOM     82 HH12 ARG A   3       6.435  85.384   9.746  0.00  0.00    +0.255 HD
ENDBRANCH  73  74
ENDBRANCH  72  73
ENDBRANCH  71  72
ENDBRANCH  53  71
ENDBRANCH  49  53
ENDBRANCH  48  51
BRANCH  48  83
ATOM     83  CB  ASP A   4      11.963  86.209   6.191  0.00  0.00    +0.143 C 
BRANCH  83  84
ATOM     84  CG  ASP A   4      11.132  87.029   5.209  0.00  0.00    +0.367 C 
ATOM     85  OD2 ASP A   4      10.017  86.587   4.850  0.00  0.00    -0.246 OA
ATOM     86  OD1 ASP A   4      11.596  88.121   4.800  0.00  0.00    -0.246 OA
ENDBRANCH  83  84
ENDBRANCH  48  83
ENDBRANCH   1  48
TORSDOF 37
REMARK  Name = ../refined-set-2016/3zc5/3zc5_pocket.pdb
REMARK  226 active torsions:
REMARK  status: ('A' for Active; 'I' for Inactive)
REMARK    1  A    between atoms: _1  and  _3
REMARK    2  A    between atoms: _3  and  _4
REMARK    3  A    between atoms: _3  and  _6
REMARK    4  A    between atoms: _9  and  _11
REMARK    5  A    between atoms: _11  and  _12
REMARK    6  A    between atoms: _11  and  _14
REMARK    7  A    between atoms: _14  and  _15
REMARK    8  A    between atoms: _18  and  _20
REMARK    9  A    between atoms: _20  and  _21
REMARK   10  A    between atoms: _23  and  _25
REMARK   11  A    between atoms: _25  and  _26
REMARK   12  A    between atoms: _25  and  _28
REMARK   13  A    between atoms: _28  and  _29
REMARK   14  A    between atoms: _29  and  _30
REMARK   15  A    between atoms: _30  and  _31
REMARK   16  A    between atoms: _40  and  _42
REMARK   17  A    between atoms: _42  and  _43
REMARK   18  A    between atoms: _45  and  _47
REMARK   19  A    between atoms: _47  and  _48
REMARK   20  A    between atoms: _47  and  _50
REMARK   21  A    between atoms: _52  and  _54
REMARK   22  A    between atoms: _54  and  _55
REMARK   23  A    between atoms: _54  and  _57
REMARK   24  A    between atoms: _60  and  _62
REMARK   25  A    between atoms: _62  and  _63
REMARK   26  A    between atoms: _62  and  _65
REMARK   27  A    between atoms: _65  and  _66
REMARK   28  A    between atoms: _71  and  _72
REMARK   29  A    between atoms: _74  and  _76
REMARK   30  A    between atoms: _76  and  _77
REMARK   31  A    between atoms: _76  and  _79
REMARK   32  A    between atoms: _79  and  _80
REMARK   33  A    between atoms: _85  and  _87
REMARK   34  A    between atoms: _87  and  _88
REMARK   35  A    between atoms: _90  and  _92
REMARK   36  A    between atoms: _92  and  _93
REMARK   37  A    between atoms: _92  and  _95
REMARK   38  A    between atoms: _95  and  _96
REMARK   39  A    between atoms: _101  and  _103
REMARK   40  A    between atoms: _103  and  _104
REMARK   41  A    between atoms: _103  and  _106
REMARK   42  A    between atoms: _108  and  _110
REMARK   43  A    between atoms: _110  and  _111
REMARK   44  A    between atoms: _114  and  _116
REMARK   45  A    between atoms: _116  and  _117
REMARK   46  A    between atoms: _116  and  _119
REMARK   47  A    between atoms: _122  and  _124
REMARK   48  A    between atoms: _124  and  _125
REMARK   49  A    between atoms: _124  and  _127
REMARK   50  A    between atoms: _127  and  _128
REMARK   51  A    between atoms: _128  and  _129
REMARK   52  A    between atoms: _129  and  _130
REMARK   53  A    between atoms: _130  and  _131
REMARK   54  A    between atoms: _135  and  _137
REMARK   55  A    between atoms: _137  and  _138
REMARK   56  A    between atoms: _137  and  _140
REMARK   57  A    between atoms: _140  and  _141
REMARK   58  A    between atoms: _143  and  _145
REMARK   59  A    between atoms: _145  and  _146
REMARK   60  A    between atoms: _145  and  _148
REMARK   61  A    between atoms: _148  and  _149
REMARK   62  A    between atoms: _149  and  _150
REMARK   63  A    between atoms: _152  and  _154
REMARK   64  A    between atoms: _154  and  _155
REMARK   65  A    between atoms: _154  and  _157
REMARK   66  A    between atoms: _157  and  _158
REMARK   67  A    between atoms: _161  and  _163
REMARK   68  A    between atoms: _163  and  _164
REMARK   69  A    between atoms: _163  and  _166
REMARK   70  A    between atoms: _166  and  _167
REMARK   71  A    between atoms: _169  and  _171
REMARK   72  A    between atoms: _171  and  _172
REMARK   73  A    between atoms: _171  and  _174
REMARK   74  A    between atoms: _177  and  _179
REMARK   75  A    between atoms: _179  and  _180
REMARK   76  A    between atoms: _179  and  _182
REMARK   77  A    between atoms: _185  and  _187
REMARK   78  A    between atoms: _187  and  _188
REMARK   79  A    between atoms: _187  and  _190
REMARK   80  A    between atoms: _190  and  _191
REMARK   81  A    between atoms: _195  and  _196
REMARK   82  A    between atoms: _201  and  _203
REMARK   83  A    between atoms: _203  and  _204
REMARK   84  A    between atoms: _203  and  _206
REMARK   85  A    between atoms: _206  and  _207
REMARK   86  A    between atoms: _212  and  _213
REMARK   87  A    between atoms: _215  and  _217
REMARK   88  A    between atoms: _217  and  _218
REMARK   89  A    between atoms: _217  and  _220
REMARK   90  A    between atoms: _220  and  _221
REMARK   91  A    between atoms: _221  and  _222
REMARK   92  A    between atoms: _224  and  _226
REMARK   93  A    between atoms: _226  and  _227
REMARK   94  A    between atoms: _226  and  _229
REMARK   95  A    between atoms: _229  and  _230
REMARK   96  A    between atoms: _230  and  _231
REMARK   97  A    between atoms: _231  and  _232
REMARK   98  A    between atoms: _232  and  _233
REMARK   99  A    between atoms: _237  and  _239
REMARK  100  A    between atoms: _239  and  _240
REMARK  101  A    between atoms: _239  and  _242
REMARK  102  A    between atoms: _242  and  _243
REMARK  103  A    between atoms: _248  and  _250
REMARK  104  A    between atoms: _250  and  _251
REMARK  105  A    between atoms: _253  and  _255
REMARK  106  A    between atoms: _255  and  _256
REMARK  107  A    between atoms: _255  and  _258
REMARK  108  A    between atoms: _258  and  _259
REMARK  109  A    between atoms: _262  and  _264
REMARK  110  A    between atoms: _264  and  _265
REMARK  111  A    between atoms: _264  and  _267
REMARK  112  A    between atoms: _267  and  _268
REMARK  113  A    between atoms: _271  and  _273
REMARK  114  A    between atoms: _273  and  _274
REMARK  115  A    between atoms: _273  and  _276
REMARK  116  A    between atoms: _276  and  _277
REMARK  117  A    between atoms: _277  and  _278
REMARK  118  A    between atoms: _278  and  _279
REMARK  119  A    between atoms: _288  and  _290
REMARK  120  A    between atoms: _290  and  _291
REMARK  121  A    between atoms: _290  and  _293
REMARK  122  A    between atoms: _293  and  _294
REMARK  123  A    between atoms: _299  and  _301
REMARK  124  A    between atoms: _301  and  _302
REMARK  125  A    between atoms: _301  and  _304
REMARK  126  A    between atoms: _304  and  _305
REMARK  127  A    between atoms: _311  and  _313
REMARK  128  A    between atoms: _313  and  _314
REMARK  129  A    between atoms: _313  and  _316
REMARK  130  A    between atoms: _316  and  _317
REMARK  131  A    between atoms: _322  and  _324
REMARK  132  A    between atoms: _324  and  _325
REMARK  133  A    between atoms: _324  and  _327
REMARK  134  A    between atoms: _327  and  _328
REMARK  135  A    between atoms: _331  and  _333
REMARK  136  A    between atoms: _333  and  _334
REMARK  137  A    between atoms: _337  and  _339
REMARK  138  A    between atoms: _339  and  _340
REMARK  139  A    between atoms: _343  and  _345
REMARK  140  A    between atoms: _345  and  _346
REMARK  141  A    between atoms: _345  and  _348
REMARK  142  A    between atoms: _348  and  _349
REMARK  143  A    between atoms: _349  and  _350
REMARK  144  A    between atoms: _350  and  _351
REMARK  145  A    between atoms: _360  and  _362
REMARK  146  A    between atoms: _362  and  _363
REMARK  147  A    between atoms: _362  and  _365
REMARK  148  A    between atoms: _365  and  _366
REMARK  149  A    between atoms: _371  and  _373
REMARK  150  A    between atoms: _373  and  _374
REMARK  151  A    between atoms: _373  and  _376
REMARK  152  A    between atoms: _378  and  _380
REMARK  153  A    between atoms: _380  and  _381
REMARK  154  A    between atoms: _380  and  _383
REMARK  155  A    between atoms: _383  and  _384
REMARK  156  A    between atoms: _384  and  _385
REMARK  157  A    between atoms: _387  and  _389
REMARK  158  A    between atoms: _389  and  _390
REMARK  159  A    between atoms: _389  and  _392
REMARK  160  A    between atoms: _392  and  _393
REMARK  161  A    between atoms: _396  and  _398
REMARK  162  A    between atoms: _398  and  _399
REMARK  163  A    between atoms: _398  and  _401
REMARK  164  A    between atoms: _401  and  _402
REMARK  165  A    between atoms: _405  and  _407
REMARK  166  A    between atoms: _407  and  _408
REMARK  167  A    between atoms: _407  and  _410
REMARK  168  A    between atoms: _410  and  _411
REMARK  169  A    between atoms: _411  and  _412
REMARK  170  A    between atoms: _412  and  _413
REMARK  171  A    between atoms: _413  and  _414
REMARK  172  A    between atoms: _418  and  _420
REMARK  173  A    between atoms: _420  and  _421
REMARK  174  A    between atoms: _420  and  _423
REMARK  175  A    between atoms: _426  and  _428
REMARK  176  A    between atoms: _428  and  _429
REMARK  177  A    between atoms: _432  and  _434
REMARK  178  A    between atoms: _434  and  _435
REMARK  179  A    between atoms: _434  and  _437
REMARK  180  A    between atoms: _437  and  _438
REMARK  181  A    between atoms: _441  and  _443
REMARK  182  A    between atoms: _443  and  _444
REMARK  183  A    between atoms: _443  and  _446
REMARK  184  A    between atoms: _446  and  _447
REMARK  185  A    between atoms: _453  and  _455
REMARK  186  A    between atoms: _455  and  _456
REMARK  187  A    between atoms: _455  and  _458
REMARK  188  A    between atoms: _458  and  _459
REMARK  189  A    between atoms: _462  and  _464
REMARK  190  A    between atoms: _464  and  _465
REMARK  191  A    between atoms: _468  and  _470
REMARK  192  A    between atoms: _470  and  _471
REMARK  193  A    between atoms: _470  and  _473
REMARK  194  A    between atoms: _473  and  _474
REMARK  195  A    between atoms: _474  and  _475
REMARK  196  A    between atoms: _475  and  _476
REMARK  197  A    between atoms: _485  and  _487
REMARK  198  A    between atoms: _487  and  _488
REMARK  199  A    between atoms: _487  and  _490
REMARK  200  A    between atoms: _490  and  _491
REMARK  201  A    between atoms: _494  and  _496
REMARK  202  A    between atoms: _496  and  _497
REMARK  203  A    between atoms: _496  and  _499
REMARK  204  A    between atoms: _499  and  _500
REMARK  205  A    between atoms: _500  and  _501
REMARK  206  A    between atoms: _503  and  _505
REMARK  207  A    between atoms: _505  and  _506
REMARK  208  A    between atoms: _505  and  _508
REMARK  209  A    between atoms: _508  and  _509
REMARK  210  A    between atoms: _514  and  _515
REMARK  211  A    between atoms: _517  and  _519
REMARK  212  A    between atoms: _519  and  _520
REMARK  213  A    between atoms: _519  and  _522
REMARK  214  A    between atoms: _522  and  _523
REMARK  215  A    between atoms: _526  and  _528
REMARK  216  A    between atoms: _528  and  _529
REMARK  217  A    between atoms: _528  and  _531
REMARK  218  A    between atoms: _531  and  _532
REMARK  219  A    between atoms: _532  and  _533
REMARK  220  A    between atoms: _533  and  _534
REMARK  221  A    between atoms: _534  and  _535
REMARK  222  A    between atoms: _539  and  _541
REMARK  223  A    between atoms: _541  and  _542
REMARK  224  A    between atoms: _541  and  _544
REMARK  225  A    between atoms: _544  and  _545
REMARK  226  A    between atoms: _550  and  _551
REMARK                            x       y       z     vdW  Elec       q    Type
REMARK                         _______ _______ _______ _____ _____    ______ ____
ROOT
ATOM      1  CG  TYR A   1       7.004  78.878   3.276  0.00  0.00    -0.020 A 
ATOM      2  CD2 TYR A   1       6.969  78.815   4.661  0.00  0.00    -0.001 A 
ATOM      3  CE2 TYR A   1       8.135  78.796   5.407  0.00  0.00    +0.036 A 
ATOM      4  CZ  TYR A   1       9.357  78.836   4.766  0.00  0.00    +0.134 A 
ATOM      5  CE1 TYR A   1       9.418  78.905   3.393  0.00  0.00    +0.036 A 
ATOM      6  CD1 TYR A   1       8.243  78.930   2.655  0.00  0.00    -0.001 A 
ENDROOT
BRANCH   4   7
ATOM      7  OH  TYR A   1      10.520  78.795   5.504  0.00  0.00    -0.506 OA
ATOM      8  HH  TYR A   1      11.298  78.832   4.893  0.00  0.00    +0.292 HD
ENDBRANCH   4   7
BRANCH   1   9
ATOM      9  CB  TYR A   1       5.731  78.819   2.466  0.00  0.00    +0.051 C 
BRANCH   9  10
ATOM     10  CA  TYR A   1       5.364  77.389   2.048  0.00  0.00    +0.137 C 
BRANCH  10  11
ATOM     11  N   TYR A   1       6.384  76.864   1.146  0.00  0.00    -0.239 NA
ATOM     12  H   TYR A   1       6.536  77.334   0.231  0.00  0.00    +0.142 HD
ENDBRANCH  10  11
BRANCH  10  13
ATOM     13  C   TYR A   1       3.985  77.362   1.379  0.00  0.00    +0.224 C 
ATOM     14  O   TYR A   1       3.830  77.823   0.251  0.00  0.00    -0.287 OA
ENDBRANCH  10  13
ENDBRANCH   9  10
ENDBRANCH   1   9
TORSDOF 5
REMARK  Name = ../refined-set-2016/3zc5/3zc5_pocket.pdb
REMARK  226 active torsions:
REMARK  status: ('A' for Active; 'I' for Inactive)
REMARK    1  A    between atoms: _1  and  _3
REMARK    2  A    between atoms: _3  and  _4
REMARK    3  A    between atoms: _3  and  _6
REMARK    4  A    between atoms: _9  and  _11
REMARK    5  A    between atoms: _11  and  _12
REMARK    6  A    between atoms: _11  and  _14
REMARK    7  A    between atoms: _14  and  _15
REMARK    8  A    between atoms: _18  and  _20
REMARK    9  A    between atoms: _20  and  _21
REMARK   10  A    between atoms: _23  and  _25
REMARK   11  A    between atoms: _25  and  _26
REMARK   12  A    between atoms: _25  and  _28
REMARK   13  A    between atoms: _28  and  _29
REMARK   14  A    between atoms: _29  and  _30
REMARK   15  A    between atoms: _30  and  _31
REMARK   16  A    between atoms: _40  and  _42
REMARK   17  A    between atoms: _42  and  _43
REMARK   18  A    between atoms: _45  and  _47
REMARK   19  A    between atoms: _47  and  _48
REMARK   20  A    between atoms: _47  and  _50
REMARK   21  A    between atoms: _52  and  _54
REMARK   22  A    between atoms: _54  and  _55
REMARK   23  A    between atoms: _54  and  _57
REMARK   24  A    between atoms: _60  and  _62
REMARK   25  A    between atoms: _62  and  _63
REMARK   26  A    between atoms: _62  and  _65
REMARK   27  A    between atoms: _65  and  _66
REMARK   28  A    between atoms: _71  and  _72
REMARK   29  A    between atoms: _74  and  _76
REMARK   30  A    between atoms: _76  and  _77
REMARK   31  A    between atoms: _76  and  _79
REMARK   32  A    between atoms: _79  and  _80
REMARK   33  A    between atoms: _85  and  _87
REMARK   34  A    between atoms: _87  and  _88
REMARK   35  A    between atoms: _90  and  _92
REMARK   36  A    between atoms: _92  and  _93
REMARK   37  A    between atoms: _92  and  _95
REMARK   38  A    between atoms: _95  and  _96
REMARK   39  A    between atoms: _101  and  _103
REMARK   40  A    between atoms: _103  and  _104
REMARK   41  A    between atoms: _103  and  _106
REMARK   42  A    between atoms: _108  and  _110
REMARK   43  A    between atoms: _110  and  _111
REMARK   44  A    between atoms: _114  and  _116
REMARK   45  A    between atoms: _116  and  _117
REMARK   46  A    between atoms: _116  and  _119
REMARK   47  A    between atoms: _122  and  _124
REMARK   48  A    between atoms: _124  and  _125
REMARK   49  A    between atoms: _124  and  _127
REMARK   50  A    between atoms: _127  and  _128
REMARK   51  A    between atoms: _128  and  _129
REMARK   52  A    between atoms: _129  and  _130
REMARK   53  A    between atoms: _130  and  _131
REMARK   54  A    between atoms: _135  and  _137
REMARK   55  A    between atoms: _137  and  _138
REMARK   56  A    between atoms: _137  and  _140
REMARK   57  A    between atoms: _140  and  _141
REMARK   58  A    between atoms: _143  and  _145
REMARK   59  A    between atoms: _145  and  _146
REMARK   60  A    between atoms: _145  and  _148
REMARK   61  A    between atoms: _148  and  _149
REMARK   62  A    between atoms: _149  and  _150
REMARK   63  A    between atoms: _152  and  _154
REMARK   64  A    between atoms: _154  and  _155
REMARK   65  A    between atoms: _154  and  _157
REMARK   66  A    between atoms: _157  and  _158
REMARK   67  A    between atoms: _161  and  _163
REMARK   68  A    between atoms: _163  and  _164
REMARK   69  A    between atoms: _163  and  _166
REMARK   70  A    between atoms: _166  and  _167
REMARK   71  A    between atoms: _169  and  _171
REMARK   72  A    between atoms: _171  and  _172
REMARK   73  A    between atoms: _171  and  _174
REMARK   74  A    between atoms: _177  and  _179
REMARK   75  A    between atoms: _179  and  _180
REMARK   76  A    between atoms: _179  and  _182
REMARK   77  A    between atoms: _185  and  _187
REMARK   78  A    between atoms: _187  and  _188
REMARK   79  A    between atoms: _187  and  _190
REMARK   80  A    between atoms: _190  and  _191
REMARK   81  A    between atoms: _195  and  _196
REMARK   82  A    between atoms: _201  and  _203
REMARK   83  A    between atoms: _203  and  _204
REMARK   84  A    between atoms: _203  and  _206
REMARK   85  A    between atoms: _206  and  _207
REMARK   86  A    between atoms: _212  and  _213
REMARK   87  A    between atoms: _215  and  _217
REMARK   88  A    between atoms: _217  and  _218
REMARK   89  A    between atoms: _217  and  _220
REMARK   90  A    between atoms: _220  and  _221
REMARK   91  A    between atoms: _221  and  _222
REMARK   92  A    between atoms: _224  and  _226
REMARK   93  A    between atoms: _226  and  _227
REMARK   94  A    between atoms: _226  and  _229
REMARK   95  A    between atoms: _229  and  _230
REMARK   96  A    between atoms: _230  and  _231
REMARK   97  A    between atoms: _231  and  _232
REMARK   98  A    between atoms: _232  and  _233
REMARK   99  A    between atoms: _237  and  _239
REMARK  100  A    between atoms: _239  and  _240
REMARK  101  A    between atoms: _239  and  _242
REMARK  102  A    between atoms: _242  and  _243
REMARK  103  A    between atoms: _248  and  _250
REMARK  104  A    between atoms: _250  and  _251
REMARK  105  A    between atoms: _253  and  _255
REMARK  106  A    between atoms: _255  and  _256
REMARK  107  A    between atoms: _255  and  _258
REMARK  108  A    between atoms: _258  and  _259
REMARK  109  A    between atoms: _262  and  _264
REMARK  110  A    between atoms: _264  and  _265
REMARK  111  A    between atoms: _264  and  _267
REMARK  112  A    between atoms: _267  and  _268
REMARK  113  A    between atoms: _271  and  _273
REMARK  114  A    between atoms: _273  and  _274
REMARK  115  A    between atoms: _273  and  _276
REMARK  116  A    between atoms: _276  and  _277
REMARK  117  A    between atoms: _277  and  _278
REMARK  118  A    between atoms: _278  and  _279
REMARK  119  A    between atoms: _288  and  _290
REMARK  120  A    between atoms: _290  and  _291
REMARK  121  A    between atoms: _290  and  _293
REMARK  122  A    between atoms: _293  and  _294
REMARK  123  A    between atoms: _299  and  _301
REMARK  124  A    between atoms: _301  and  _302
REMARK  125  A    between atoms: _301  and  _304
REMARK  126  A    between atoms: _304  and  _305
REMARK  127  A    between atoms: _311  and  _313
REMARK  128  A    between atoms: _313  and  _314
REMARK  129  A    between atoms: _313  and  _316
REMARK  130  A    between atoms: _316  and  _317
REMARK  131  A    between atoms: _322  and  _324
REMARK  132  A    between atoms: _324  and  _325
REMARK  133  A    between atoms: _324  and  _327
REMARK  134  A    between atoms: _327  and  _328
REMARK  135  A    between atoms: _331  and  _333
REMARK  136  A    between atoms: _333  and  _334
REMARK  137  A    between atoms: _337  and  _339
REMARK  138  A    between atoms: _339  and  _340
REMARK  139  A    between atoms: _343  and  _345
REMARK  140  A    between atoms: _345  and  _346
REMARK  141  A    between atoms: _345  and  _348
REMARK  142  A    between atoms: _348  and  _349
REMARK  143  A    between atoms: _349  and  _350
REMARK  144  A    between atoms: _350  and  _351
REMARK  145  A    between atoms: _360  and  _362
REMARK  146  A    between atoms: _362  and  _363
REMARK  147  A    between atoms: _362  and  _365
REMARK  148  A    between atoms: _365  and  _366
REMARK  149  A    between atoms: _371  and  _373
REMARK  150  A    between atoms: _373  and  _374
REMARK  151  A    between atoms: _373  and  _376
REMARK  152  A    between atoms: _378  and  _380
REMARK  153  A    between atoms: _380  and  _381
REMARK  154  A    between atoms: _380  and  _383
REMARK  155  A    between atoms: _383  and  _384
REMARK  156  A    between atoms: _384  and  _385
REMARK  157  A    between atoms: _387  and  _389
REMARK  158  A    between atoms: _389  and  _390
REMARK  159  A    between atoms: _389  and  _392
REMARK  160  A    between atoms: _392  and  _393
REMARK  161  A    between atoms: _396  and  _398
REMARK  162  A    between atoms: _398  and  _399
REMARK  163  A    between atoms: _398  and  _401
REMARK  164  A    between atoms: _401  and  _402
REMARK  165  A    between atoms: _405  and  _407
REMARK  166  A    between atoms: _407  and  _408
REMARK  167  A    between atoms: _407  and  _410
REMARK  168  A    between atoms: _410  and  _411
REMARK  169  A    between atoms: _411  and  _412
REMARK  170  A    between atoms: _412  and  _413
REMARK  171  A    between atoms: _413  and  _414
REMARK  172  A    between atoms: _418  and  _420
REMARK  173  A    between atoms: _420  and  _421
REMARK  174  A    between atoms: _420  and  _423
REMARK  175  A    between atoms: _426  and  _428
REMARK  176  A    between atoms: _428  and  _429
REMARK  177  A    between atoms: _432  and  _434
REMARK  178  A    between atoms: _434  and  _435
REMARK  179  A    between atoms: _434  and  _437
REMARK  180  A    between atoms: _437  and  _438
REMARK  181  A    between atoms: _441  and  _443
REMARK  182  A    between atoms: _443  and  _444
REMARK  183  A    between atoms: _443  and  _446
REMARK  184  A    between atoms: _446  and  _447
REMARK  185  A    between atoms: _453  and  _455
REMARK  186  A    between atoms: _455  and  _456
REMARK  187  A    between atoms: _455  and  _458
REMARK  188  A    between atoms: _458  and  _459
REMARK  189  A    between atoms: _462  and  _464
REMARK  190  A    between atoms: _464  and  _465
REMARK  191  A    between atoms: _468  and  _470
REMARK  192  A    between atoms: _470  and  _471
REMARK  193  A    between atoms: _470  and  _473
REMARK  194  A    between atoms: _473  and  _474
REMARK  195  A    between atoms: _474  and  _475
REMARK  196  A    between atoms: _475  and  _476
REMARK  197  A    between atoms: _485  and  _487
REMARK  198  A    between atoms: _487  and  _488
REMARK  199  A    between atoms: _487  and  _490
REMARK  200  A    between atoms: _490  and  _491
REMARK  201  A    between atoms: _494  and  _496
REMARK  202  A    between atoms: _496  and  _497
REMARK  203  A    between atoms: _496  and  _499
REMARK  204  A    between atoms: _499  and  _500
REMARK  205  A    between atoms: _500  and  _501
REMARK  206  A    between atoms: _503  and  _505
REMARK  207  A    between atoms: _505  and  _506
REMARK  208  A    between atoms: _505  and  _508
REMARK  209  A    between atoms: _508  and  _509
REMARK  210  A    between atoms: _514  and  _515
REMARK  211  A    between atoms: _517  and  _519
REMARK  212  A    between atoms: _519  and  _520
REMARK  213  A    between atoms: _519  and  _522
REMARK  214  A    between atoms: _522  and  _523
REMARK  215  A    between atoms: _526  and  _528
REMARK  216  A    between atoms: _528  and  _529
REMARK  217  A    between atoms: _528  and  _531
REMARK  218  A    between atoms: _531  and  _532
REMARK  219  A    between atoms: _532  and  _533
REMARK  220  A    between atoms: _533  and  _534
REMARK  221  A    between atoms: _534  and  _535
REMARK  222  A    between atoms: _539  and  _541
REMARK  223  A    between atoms: _541  and  _542
REMARK  224  A    between atoms: _541  and  _544
REMARK  225  A    between atoms: _544  and  _545
REMARK  226  A    between atoms: _550  and  _551
REMARK                            x       y       z     vdW  Elec       q    Type
REMARK                         _______ _______ _______ _____ _____    ______ ____
ROOT
ATOM      1  O   HOH     1      28.184  90.551  -0.820  0.00  0.00    +0.000 OA
ENDROOT
TORSDOF 0
REMARK  Name = ../refined-set-2016/3zc5/3zc5_pocket.pdb
REMARK  226 active torsions:
REMARK  status: ('A' for Active; 'I' for Inactive)
REMARK    1  A    between atoms: _1  and  _3
REMARK    2  A    between atoms: _3  and  _4
REMARK    3  A    between atoms: _3  and  _6
REMARK    4  A    between atoms: _9  and  _11
REMARK    5  A    between atoms: _11  and  _12
REMARK    6  A    between atoms: _11  and  _14
REMARK    7  A    between atoms: _14  and  _15
REMARK    8  A    between atoms: _18  and  _20
REMARK    9  A    between atoms: _20  and  _21
REMARK   10  A    between atoms: _23  and  _25
REMARK   11  A    between atoms: _25  and  _26
REMARK   12  A    between atoms: _25  and  _28
REMARK   13  A    between atoms: _28  and  _29
REMARK   14  A    between atoms: _29  and  _30
REMARK   15  A    between atoms: _30  and  _31
REMARK   16  A    between atoms: _40  and  _42
REMARK   17  A    between atoms: _42  and  _43
REMARK   18  A    between atoms: _45  and  _47
REMARK   19  A    between atoms: _47  and  _48
REMARK   20  A    between atoms: _47  and  _50
REMARK   21  A    between atoms: _52  and  _54
REMARK   22  A    between atoms: _54  and  _55
REMARK   23  A    between atoms: _54  and  _57
REMARK   24  A    between atoms: _60  and  _62
REMARK   25  A    between atoms: _62  and  _63
REMARK   26  A    between atoms: _62  and  _65
REMARK   27  A    between atoms: _65  and  _66
REMARK   28  A    between atoms: _71  and  _72
REMARK   29  A    between atoms: _74  and  _76
REMARK   30  A    between atoms: _76  and  _77
REMARK   31  A    between atoms: _76  and  _79
REMARK   32  A    between atoms: _79  and  _80
REMARK   33  A    between atoms: _85  and  _87
REMARK   34  A    between atoms: _87  and  _88
REMARK   35  A    between atoms: _90  and  _92
REMARK   36  A    between atoms: _92  and  _93
REMARK   37  A    between atoms: _92  and  _95
REMARK   38  A    between atoms: _95  and  _96
REMARK   39  A    between atoms: _101  and  _103
REMARK   40  A    between atoms: _103  and  _104
REMARK   41  A    between atoms: _103  and  _106
REMARK   42  A    between atoms: _108  and  _110
REMARK   43  A    between atoms: _110  and  _111
REMARK   44  A    between atoms: _114  and  _116
REMARK   45  A    between atoms: _116  and  _117
REMARK   46  A    between atoms: _116  and  _119
REMARK   47  A    between atoms: _122  and  _124
REMARK   48  A    between atoms: _124  and  _125
REMARK   49  A    between atoms: _124  and  _127
REMARK   50  A    between atoms: _127  and  _128
REMARK   51  A    between atoms: _128  and  _129
REMARK   52  A    between atoms: _129  and  _130
REMARK   53  A    between atoms: _130  and  _131
REMARK   54  A    between atoms: _135  and  _137
REMARK   55  A    between atoms: _137  and  _138
REMARK   56  A    between atoms: _137  and  _140
REMARK   57  A    between atoms: _140  and  _141
REMARK   58  A    between atoms: _143  and  _145
REMARK   59  A    between atoms: _145  and  _146
REMARK   60  A    between atoms: _145  and  _148
REMARK   61  A    between atoms: _148  and  _149
REMARK   62  A    between atoms: _149  and  _150
REMARK   63  A    between atoms: _152  and  _154
REMARK   64  A    between atoms: _154  and  _155
REMARK   65  A    between atoms: _154  and  _157
REMARK   66  A    between atoms: _157  and  _158
REMARK   67  A    between atoms: _161  and  _163
REMARK   68  A    between atoms: _163  and  _164
REMARK   69  A    between atoms: _163  and  _166
REMARK   70  A    between atoms: _166  and  _167
REMARK   71  A    between atoms: _169  and  _171
REMARK   72  A    between atoms: _171  and  _172
REMARK   73  A    between atoms: _171  and  _174
REMARK   74  A    between atoms: _177  and  _179
REMARK   75  A    between atoms: _179  and  _180
REMARK   76  A    between atoms: _179  and  _182
REMARK   77  A    between atoms: _185  and  _187
REMARK   78  A    between atoms: _187  and  _188
REMARK   79  A    between atoms: _187  and  _190
REMARK   80  A    between atoms: _190  and  _191
REMARK   81  A    between atoms: _195  and  _196
REMARK   82  A    between atoms: _201  and  _203
REMARK   83  A    between atoms: _203  and  _204
REMARK   84  A    between atoms: _203  and  _206
REMARK   85  A    between atoms: _206  and  _207
REMARK   86  A    between atoms: _212  and  _213
REMARK   87  A    between atoms: _215  and  _217
REMARK   88  A    between atoms: _217  and  _218
REMARK   89  A    between atoms: _217  and  _220
REMARK   90  A    between atoms: _220  and  _221
REMARK   91  A    between atoms: _221  and  _222
REMARK   92  A    between atoms: _224  and  _226
REMARK   93  A    between atoms: _226  and  _227
REMARK   94  A    between atoms: _226  and  _229
REMARK   95  A    between atoms: _229  and  _230
REMARK   96  A    between atoms: _230  and  _231
REMARK   97  A    between atoms: _231  and  _232
REMARK   98  A    between atoms: _232  and  _233
REMARK   99  A    between atoms: _237  and  _239
REMARK  100  A    between atoms: _239  and  _240
REMARK  101  A    between atoms: _239  and  _242
REMARK  102  A    between atoms: _242  and  _243
REMARK  103  A    between atoms: _248  and  _250
REMARK  104  A    between atoms: _250  and  _251
REMARK  105  A    between atoms: _253  and  _255
REMARK  106  A    between atoms: _255  and  _256
REMARK  107  A    between atoms: _255  and  _258
REMARK  108  A    between atoms: _258  and  _259
REMARK  109  A    between atoms: _262  and  _264
REMARK  110  A    between atoms: _264  and  _265
REMARK  111  A    between atoms: _264  and  _267
REMARK  112  A    between atoms: _267  and  _268
REMARK  113  A    between atoms: _271  and  _273
REMARK  114  A    between atoms: _273  and  _274
REMARK  115  A    between atoms: _273  and  _276
REMARK  116  A    between atoms: _276  and  _277
REMARK  117  A    between atoms: _277  and  _278
REMARK  118  A    between atoms: _278  and  _279
REMARK  119  A    between atoms: _288  and  _290
REMARK  120  A    between atoms: _290  and  _291
REMARK  121  A    between atoms: _290  and  _293
REMARK  122  A    between atoms: _293  and  _294
REMARK  123  A    between atoms: _299  and  _301
REMARK  124  A    between atoms: _301  and  _302
REMARK  125  A    between atoms: _301  and  _304
REMARK  126  A    between atoms: _304  and  _305
REMARK  127  A    between atoms: _311  and  _313
REMARK  128  A    between atoms: _313  and  _314
REMARK  129  A    between atoms: _313  and  _316
REMARK  130  A    between atoms: _316  and  _317
REMARK  131  A    between atoms: _322  and  _324
REMARK  132  A    between atoms: _324  and  _325
REMARK  133  A    between atoms: _324  and  _327
REMARK  134  A    between atoms: _327  and  _328
REMARK  135  A    between atoms: _331  and  _333
REMARK  136  A    between atoms: _333  and  _334
REMARK  137  A    between atoms: _337  and  _339
REMARK  138  A    between atoms: _339  and  _340
REMARK  139  A    between atoms: _343  and  _345
REMARK  140  A    between atoms: _345  and  _346
REMARK  141  A    between atoms: _345  and  _348
REMARK  142  A    between atoms: _348  and  _349
REMARK  143  A    between atoms: _349  and  _350
REMARK  144  A    between atoms: _350  and  _351
REMARK  145  A    between atoms: _360  and  _362
REMARK  146  A    between atoms: _362  and  _363
REMARK  147  A    between atoms: _362  and  _365
REMARK  148  A    between atoms: _365  and  _366
REMARK  149  A    between atoms: _371  and  _373
REMARK  150  A    between atoms: _373  and  _374
REMARK  151  A    between atoms: _373  and  _376
REMARK  152  A    between atoms: _378  and  _380
REMARK  153  A    between atoms: _380  and  _381
REMARK  154  A    between atoms: _380  and  _383
REMARK  155  A    between atoms: _383  and  _384
REMARK  156  A    between atoms: _384  and  _385
REMARK  157  A    between atoms: _387  and  _389
REMARK  158  A    between atoms: _389  and  _390
REMARK  159  A    between atoms: _389  and  _392
REMARK  160  A    between atoms: _392  and  _393
REMARK  161  A    between atoms: _396  and  _398
REMARK  162  A    between atoms: _398  and  _399
REMARK  163  A    between atoms: _398  and  _401
REMARK  164  A    between atoms: _401  and  _402
REMARK  165  A    between atoms: _405  and  _407
REMARK  166  A    between atoms: _407  and  _408
REMARK  167  A    between atoms: _407  and  _410
REMARK  168  A    between atoms: _410  and  _411
REMARK  169  A    between atoms: _411  and  _412
REMARK  170  A    between atoms: _412  and  _413
REMARK  171  A    between atoms: _413  and  _414
REMARK  172  A    between atoms: _418  and  _420
REMARK  173  A    between atoms: _420  and  _421
REMARK  174  A    between atoms: _420  and  _423
REMARK  175  A    between atoms: _426  and  _428
REMARK  176  A    between atoms: _428  and  _429
REMARK  177  A    between atoms: _432  and  _434
REMARK  178  A    between atoms: _434  and  _435
REMARK  179  A    between atoms: _434  and  _437
REMARK  180  A    between atoms: _437  and  _438
REMARK  181  A    between atoms: _441  and  _443
REMARK  182  A    between atoms: _443  and  _444
REMARK  183  A    between atoms: _443  and  _446
REMARK  184  A    between atoms: _446  and  _447
REMARK  185  A    between atoms: _453  and  _455
REMARK  186  A    between atoms: _455  and  _456
REMARK  187  A    between atoms: _455  and  _458
REMARK  188  A    between atoms: _458  and  _459
REMARK  189  A    between atoms: _462  and  _464
REMARK  190  A    between atoms: _464  and  _465
REMARK  191  A    between atoms: _468  and  _470
REMARK  192  A    between atoms: _470  and  _471
REMARK  193  A    between atoms: _470  and  _473
REMARK  194  A    between atoms: _473  and  _474
REMARK  195  A    between atoms: _474  and  _475
REMARK  196  A    between atoms: _475  and  _476
REMARK  197  A    between atoms: _485  and  _487
REMARK  198  A    between atoms: _487  and  _488
REMARK  199  A    between atoms: _487  and  _490
REMARK  200  A    between atoms: _490  and  _491
REMARK  201  A    between atoms: _494  and  _496
REMARK  202  A    between atoms: _496  and  _497
REMARK  203  A    between atoms: _496  and  _499
REMARK  204  A    between atoms: _499  and  _500
REMARK  205  A    between atoms: _500  and  _501
REMARK  206  A    between atoms: _503  and  _505
REMARK  207  A    between atoms: _505  and  _506
REMARK  208  A    between atoms: _505  and  _508
REMARK  209  A    between atoms: _508  and  _509
REMARK  210  A    between atoms: _514  and  _515
REMARK  211  A    between atoms: _517  and  _519
REMARK  212  A    between atoms: _519  and  _520
REMARK  213  A    between atoms: _519  and  _522
REMARK  214  A    between atoms: _522  and  _523
REMARK  215  A    between atoms: _526  and  _528
REMARK  216  A    between atoms: _528  and  _529
REMARK  217  A    between atoms: _528  and  _531
REMARK  218  A    between atoms: _531  and  _532
REMARK  219  A    between atoms: _532  and  _533
REMARK  220  A    between atoms: _533  and  _534
REMARK  221  A    between atoms: _534  and  _535
REMARK  222  A    between atoms: _539  and  _541
REMARK  223  A    between atoms: _541  and  _542
REMARK  224  A    between atoms: _541  and  _544
REMARK  225  A    between atoms: _544  and  _545
REMARK  226  A    between atoms: _550  and  _551
REMARK                            x       y       z     vdW  Elec       q    Type
REMARK                         _______ _______ _______ _____ _____    ______ ____
ROOT
ATOM      1  O   HOH     1      26.532  81.781  -0.961  0.00  0.00    +0.000 OA
ENDROOT
TORSDOF 0
REMARK  Name = ../refined-set-2016/3zc5/3zc5_pocket.pdb
REMARK  226 active torsions:
REMARK  status: ('A' for Active; 'I' for Inactive)
REMARK    1  A    between atoms: _1  and  _3
REMARK    2  A    between atoms: _3  and  _4
REMARK    3  A    between atoms: _3  and  _6
REMARK    4  A    between atoms: _9  and  _11
REMARK    5  A    between atoms: _11  and  _12
REMARK    6  A    between atoms: _11  and  _14
REMARK    7  A    between atoms: _14  and  _15
REMARK    8  A    between atoms: _18  and  _20
REMARK    9  A    between atoms: _20  and  _21
REMARK   10  A    between atoms: _23  and  _25
REMARK   11  A    between atoms: _25  and  _26
REMARK   12  A    between atoms: _25  and  _28
REMARK   13  A    between atoms: _28  and  _29
REMARK   14  A    between atoms: _29  and  _30
REMARK   15  A    between atoms: _30  and  _31
REMARK   16  A    between atoms: _40  and  _42
REMARK   17  A    between atoms: _42  and  _43
REMARK   18  A    between atoms: _45  and  _47
REMARK   19  A    between atoms: _47  and  _48
REMARK   20  A    between atoms: _47  and  _50
REMARK   21  A    between atoms: _52  and  _54
REMARK   22  A    between atoms: _54  and  _55
REMARK   23  A    between atoms: _54  and  _57
REMARK   24  A    between atoms: _60  and  _62
REMARK   25  A    between atoms: _62  and  _63
REMARK   26  A    between atoms: _62  and  _65
REMARK   27  A    between atoms: _65  and  _66
REMARK   28  A    between atoms: _71  and  _72
REMARK   29  A    between atoms: _74  and  _76
REMARK   30  A    between atoms: _76  and  _77
REMARK   31  A    between atoms: _76  and  _79
REMARK   32  A    between atoms: _79  and  _80
REMARK   33  A    between atoms: _85  and  _87
REMARK   34  A    between atoms: _87  and  _88
REMARK   35  A    between atoms: _90  and  _92
REMARK   36  A    between atoms: _92  and  _93
REMARK   37  A    between atoms: _92  and  _95
REMARK   38  A    between atoms: _95  and  _96
REMARK   39  A    between atoms: _101  and  _103
REMARK   40  A    between atoms: _103  and  _104
REMARK   41  A    between atoms: _103  and  _106
REMARK   42  A    between atoms: _108  and  _110
REMARK   43  A    between atoms: _110  and  _111
REMARK   44  A    between atoms: _114  and  _116
REMARK   45  A    between atoms: _116  and  _117
REMARK   46  A    between atoms: _116  and  _119
REMARK   47  A    between atoms: _122  and  _124
REMARK   48  A    between atoms: _124  and  _125
REMARK   49  A    between atoms: _124  and  _127
REMARK   50  A    between atoms: _127  and  _128
REMARK   51  A    between atoms: _128  and  _129
REMARK   52  A    between atoms: _129  and  _130
REMARK   53  A    between atoms: _130  and  _131
REMARK   54  A    between atoms: _135  and  _137
REMARK   55  A    between atoms: _137  and  _138
REMARK   56  A    between atoms: _137  and  _140
REMARK   57  A    between atoms: _140  and  _141
REMARK   58  A    between atoms: _143  and  _145
REMARK   59  A    between atoms: _145  and  _146
REMARK   60  A    between atoms: _145  and  _148
REMARK   61  A    between atoms: _148  and  _149
REMARK   62  A    between atoms: _149  and  _150
REMARK   63  A    between atoms: _152  and  _154
REMARK   64  A    between atoms: _154  and  _155
REMARK   65  A    between atoms: _154  and  _157
REMARK   66  A    between atoms: _157  and  _158
REMARK   67  A    between atoms: _161  and  _163
REMARK   68  A    between atoms: _163  and  _164
REMARK   69  A    between atoms: _163  and  _166
REMARK   70  A    between atoms: _166  and  _167
REMARK   71  A    between atoms: _169  and  _171
REMARK   72  A    between atoms: _171  and  _172
REMARK   73  A    between atoms: _171  and  _174
REMARK   74  A    between atoms: _177  and  _179
REMARK   75  A    between atoms: _179  and  _180
REMARK   76  A    between atoms: _179  and  _182
REMARK   77  A    between atoms: _185  and  _187
REMARK   78  A    between atoms: _187  and  _188
REMARK   79  A    between atoms: _187  and  _190
REMARK   80  A    between atoms: _190  and  _191
REMARK   81  A    between atoms: _195  and  _196
REMARK   82  A    between atoms: _201  and  _203
REMARK   83  A    between atoms: _203  and  _204
REMARK   84  A    between atoms: _203  and  _206
REMARK   85  A    between atoms: _206  and  _207
REMARK   86  A    between atoms: _212  and  _213
REMARK   87  A    between atoms: _215  and  _217
REMARK   88  A    between atoms: _217  and  _218
REMARK   89  A    between atoms: _217  and  _220
REMARK   90  A    between atoms: _220  and  _221
REMARK   91  A    between atoms: _221  and  _222
REMARK   92  A    between atoms: _224  and  _226
REMARK   93  A    between atoms: _226  and  _227
REMARK   94  A    between atoms: _226  and  _229
REMARK   95  A    between atoms: _229  and  _230
REMARK   96  A    between atoms: _230  and  _231
REMARK   97  A    between atoms: _231  and  _232
REMARK   98  A    between atoms: _232  and  _233
REMARK   99  A    between atoms: _237  and  _239
REMARK  100  A    between atoms: _239  and  _240
REMARK  101  A    between atoms: _239  and  _242
REMARK  102  A    between atoms: _242  and  _243
REMARK  103  A    between atoms: _248  and  _250
REMARK  104  A    between atoms: _250  and  _251
REMARK  105  A    between atoms: _253  and  _255
REMARK  106  A    between atoms: _255  and  _256
REMARK  107  A    between atoms: _255  and  _258
REMARK  108  A    between atoms: _258  and  _259
REMARK  109  A    between atoms: _262  and  _264
REMARK  110  A    between atoms: _264  and  _265
REMARK  111  A    between atoms: _264  and  _267
REMARK  112  A    between atoms: _267  and  _268
REMARK  113  A    between atoms: _271  and  _273
REMARK  114  A    between atoms: _273  and  _274
REMARK  115  A    between atoms: _273  and  _276
REMARK  116  A    between atoms: _276  and  _277
REMARK  117  A    between atoms: _277  and  _278
REMARK  118  A    between atoms: _278  and  _279
REMARK  119  A    between atoms: _288  and  _290
REMARK  120  A    between atoms: _290  and  _291
REMARK  121  A    between atoms: _290  and  _293
REMARK  122  A    between atoms: _293  and  _294
REMARK  123  A    between atoms: _299  and  _301
REMARK  124  A    between atoms: _301  and  _302
REMARK  125  A    between atoms: _301  and  _304
REMARK  126  A    between atoms: _304  and  _305
REMARK  127  A    between atoms: _311  and  _313
REMARK  128  A    between atoms: _313  and  _314
REMARK  129  A    between atoms: _313  and  _316
REMARK  130  A    between atoms: _316  and  _317
REMARK  131  A    between atoms: _322  and  _324
REMARK  132  A    between atoms: _324  and  _325
REMARK  133  A    between atoms: _324  and  _327
REMARK  134  A    between atoms: _327  and  _328
REMARK  135  A    between atoms: _331  and  _333
REMARK  136  A    between atoms: _333  and  _334
REMARK  137  A    between atoms: _337  and  _339
REMARK  138  A    between atoms: _339  and  _340
REMARK  139  A    between atoms: _343  and  _345
REMARK  140  A    between atoms: _345  and  _346
REMARK  141  A    between atoms: _345  and  _348
REMARK  142  A    between atoms: _348  and  _349
REMARK  143  A    between atoms: _349  and  _350
REMARK  144  A    between atoms: _350  and  _351
REMARK  145  A    between atoms: _360  and  _362
REMARK  146  A    between atoms: _362  and  _363
REMARK  147  A    between atoms: _362  and  _365
REMARK  148  A    between atoms: _365  and  _366
REMARK  149  A    between atoms: _371  and  _373
REMARK  150  A    between atoms: _373  and  _374
REMARK  151  A    between atoms: _373  and  _376
REMARK  152  A    between atoms: _378  and  _380
REMARK  153  A    between atoms: _380  and  _381
REMARK  154  A    between atoms: _380  and  _383
REMARK  155  A    between atoms: _383  and  _384
REMARK  156  A    between atoms: _384  and  _385
REMARK  157  A    between atoms: _387  and  _389
REMARK  158  A    between atoms: _389  and  _390
REMARK  159  A    between atoms: _389  and  _392
REMARK  160  A    between atoms: _392  and  _393
REMARK  161  A    between atoms: _396  and  _398
REMARK  162  A    between atoms: _398  and  _399
REMARK  163  A    between atoms: _398  and  _401
REMARK  164  A    between atoms: _401  and  _402
REMARK  165  A    between atoms: _405  and  _407
REMARK  166  A    between atoms: _407  and  _408
REMARK  167  A    between atoms: _407  and  _410
REMARK  168  A    between atoms: _410  and  _411
REMARK  169  A    between atoms: _411  and  _412
REMARK  170  A    between atoms: _412  and  _413
REMARK  171  A    between atoms: _413  and  _414
REMARK  172  A    between atoms: _418  and  _420
REMARK  173  A    between atoms: _420  and  _421
REMARK  174  A    between atoms: _420  and  _423
REMARK  175  A    between atoms: _426  and  _428
REMARK  176  A    between atoms: _428  and  _429
REMARK  177  A    between atoms: _432  and  _434
REMARK  178  A    between atoms: _434  and  _435
REMARK  179  A    between atoms: _434  and  _437
REMARK  180  A    between atoms: _437  and  _438
REMARK  181  A    between atoms: _441  and  _443
REMARK  182  A    between atoms: _443  and  _444
REMARK  183  A    between atoms: _443  and  _446
REMARK  184  A    between atoms: _446  and  _447
REMARK  185  A    between atoms: _453  and  _455
REMARK  186  A    between atoms: _455  and  _456
REMARK  187  A    between atoms: _455  and  _458
REMARK  188  A    between atoms: _458  and  _459
REMARK  189  A    between atoms: _462  and  _464
REMARK  190  A    between atoms: _464  and  _465
REMARK  191  A    between atoms: _468  and  _470
REMARK  192  A    between atoms: _470  and  _471
REMARK  193  A    between atoms: _470  and  _473
REMARK  194  A    between atoms: _473  and  _474
REMARK  195  A    between atoms: _474  and  _475
REMARK  196  A    between atoms: _475  and  _476
REMARK  197  A    between atoms: _485  and  _487
REMARK  198  A    between atoms: _487  and  _488
REMARK  199  A    between atoms: _487  and  _490
REMARK  200  A    between atoms: _490  and  _491
REMARK  201  A    between atoms: _494  and  _496
REMARK  202  A    between atoms: _496  and  _497
REMARK  203  A    between atoms: _496  and  _499
REMARK  204  A    between atoms: _499  and  _500
REMARK  205  A    between atoms: _500  and  _501
REMARK  206  A    between atoms: _503  and  _505
REMARK  207  A    between atoms: _505  and  _506
REMARK  208  A    between atoms: _505  and  _508
REMARK  209  A    between atoms: _508  and  _509
REMARK  210  A    between atoms: _514  and  _515
REMARK  211  A    between atoms: _517  and  _519
REMARK  212  A    between atoms: _519  and  _520
REMARK  213  A    between atoms: _519  and  _522
REMARK  214  A    between atoms: _522  and  _523
REMARK  215  A    between atoms: _526  and  _528
REMARK  216  A    between atoms: _528  and  _529
REMARK  217  A    between atoms: _528  and  _531
REMARK  218  A    between atoms: _531  and  _532
REMARK  219  A    between atoms: _532  and  _533
REMARK  220  A    between atoms: _533  and  _534
REMARK  221  A    between atoms: _534  and  _535
REMARK  222  A    between atoms: _539  and  _541
REMARK  223  A    between atoms: _541  and  _542
REMARK  224  A    between atoms: _541  and  _544
REMARK  225  A    between atoms: _544  and  _545
REMARK  226  A    between atoms: _550  and  _551
REMARK                            x       y       z     vdW  Elec       q    Type
REMARK                         _______ _______ _______ _____ _____    ______ ____
ROOT
ATOM      1  O   HOH     1      24.316  79.869  -1.131  0.00  0.00    +0.000 OA
ENDROOT
TORSDOF 0
REMARK  Name = ../refined-set-2016/3zc5/3zc5_pocket.pdb
REMARK  226 active torsions:
REMARK  status: ('A' for Active; 'I' for Inactive)
REMARK    1  A    between atoms: _1  and  _3
REMARK    2  A    between atoms: _3  and  _4
REMARK    3  A    between atoms: _3  and  _6
REMARK    4  A    between atoms: _9  and  _11
REMARK    5  A    between atoms: _11  and  _12
REMARK    6  A    between atoms: _11  and  _14
REMARK    7  A    between atoms: _14  and  _15
REMARK    8  A    between atoms: _18  and  _20
REMARK    9  A    between atoms: _20  and  _21
REMARK   10  A    between atoms: _23  and  _25
REMARK   11  A    between atoms: _25  and  _26
REMARK   12  A    between atoms: _25  and  _28
REMARK   13  A    between atoms: _28  and  _29
REMARK   14  A    between atoms: _29  and  _30
REMARK   15  A    between atoms: _30  and  _31
REMARK   16  A    between atoms: _40  and  _42
REMARK   17  A    between atoms: _42  and  _43
REMARK   18  A    between atoms: _45  and  _47
REMARK   19  A    between atoms: _47  and  _48
REMARK   20  A    between atoms: _47  and  _50
REMARK   21  A    between atoms: _52  and  _54
REMARK   22  A    between atoms: _54  and  _55
REMARK   23  A    between atoms: _54  and  _57
REMARK   24  A    between atoms: _60  and  _62
REMARK   25  A    between atoms: _62  and  _63
REMARK   26  A    between atoms: _62  and  _65
REMARK   27  A    between atoms: _65  and  _66
REMARK   28  A    between atoms: _71  and  _72
REMARK   29  A    between atoms: _74  and  _76
REMARK   30  A    between atoms: _76  and  _77
REMARK   31  A    between atoms: _76  and  _79
REMARK   32  A    between atoms: _79  and  _80
REMARK   33  A    between atoms: _85  and  _87
REMARK   34  A    between atoms: _87  and  _88
REMARK   35  A    between atoms: _90  and  _92
REMARK   36  A    between atoms: _92  and  _93
REMARK   37  A    between atoms: _92  and  _95
REMARK   38  A    between atoms: _95  and  _96
REMARK   39  A    between atoms: _101  and  _103
REMARK   40  A    between atoms: _103  and  _104
REMARK   41  A    between atoms: _103  and  _106
REMARK   42  A    between atoms: _108  and  _110
REMARK   43  A    between atoms: _110  and  _111
REMARK   44  A    between atoms: _114  and  _116
REMARK   45  A    between atoms: _116  and  _117
REMARK   46  A    between atoms: _116  and  _119
REMARK   47  A    between atoms: _122  and  _124
REMARK   48  A    between atoms: _124  and  _125
REMARK   49  A    between atoms: _124  and  _127
REMARK   50  A    between atoms: _127  and  _128
REMARK   51  A    between atoms: _128  and  _129
REMARK   52  A    between atoms: _129  and  _130
REMARK   53  A    between atoms: _130  and  _131
REMARK   54  A    between atoms: _135  and  _137
REMARK   55  A    between atoms: _137  and  _138
REMARK   56  A    between atoms: _137  and  _140
REMARK   57  A    between atoms: _140  and  _141
REMARK   58  A    between atoms: _143  and  _145
REMARK   59  A    between atoms: _145  and  _146
REMARK   60  A    between atoms: _145  and  _148
REMARK   61  A    between atoms: _148  and  _149
REMARK   62  A    between atoms: _149  and  _150
REMARK   63  A    between atoms: _152  and  _154
REMARK   64  A    between atoms: _154  and  _155
REMARK   65  A    between atoms: _154  and  _157
REMARK   66  A    between atoms: _157  and  _158
REMARK   67  A    between atoms: _161  and  _163
REMARK   68  A    between atoms: _163  and  _164
REMARK   69  A    between atoms: _163  and  _166
REMARK   70  A    between atoms: _166  and  _167
REMARK   71  A    between atoms: _169  and  _171
REMARK   72  A    between atoms: _171  and  _172
REMARK   73  A    between atoms: _171  and  _174
REMARK   74  A    between atoms: _177  and  _179
REMARK   75  A    between atoms: _179  and  _180
REMARK   76  A    between atoms: _179  and  _182
REMARK   77  A    between atoms: _185  and  _187
REMARK   78  A    between atoms: _187  and  _188
REMARK   79  A    between atoms: _187  and  _190
REMARK   80  A    between atoms: _190  and  _191
REMARK   81  A    between atoms: _195  and  _196
REMARK   82  A    between atoms: _201  and  _203
REMARK   83  A    between atoms: _203  and  _204
REMARK   84  A    between atoms: _203  and  _206
REMARK   85  A    between atoms: _206  and  _207
REMARK   86  A    between atoms: _212  and  _213
REMARK   87  A    between atoms: _215  and  _217
REMARK   88  A    between atoms: _217  and  _218
REMARK   89  A    between atoms: _217  and  _220
REMARK   90  A    between atoms: _220  and  _221
REMARK   91  A    between atoms: _221  and  _222
REMARK   92  A    between atoms: _224  and  _226
REMARK   93  A    between atoms: _226  and  _227
REMARK   94  A    between atoms: _226  and  _229
REMARK   95  A    between atoms: _229  and  _230
REMARK   96  A    between atoms: _230  and  _231
REMARK   97  A    between atoms: _231  and  _232
REMARK   98  A    between atoms: _232  and  _233
REMARK   99  A    between atoms: _237  and  _239
REMARK  100  A    between atoms: _239  and  _240
REMARK  101  A    between atoms: _239  and  _242
REMARK  102  A    between atoms: _242  and  _243
REMARK  103  A    between atoms: _248  and  _250
REMARK  104  A    between atoms: _250  and  _251
REMARK  105  A    between atoms: _253  and  _255
REMARK  106  A    between atoms: _255  and  _256
REMARK  107  A    between atoms: _255  and  _258
REMARK  108  A    between atoms: _258  and  _259
REMARK  109  A    between atoms: _262  and  _264
REMARK  110  A    between atoms: _264  and  _265
REMARK  111  A    between atoms: _264  and  _267
REMARK  112  A    between atoms: _267  and  _268
REMARK  113  A    between atoms: _271  and  _273
REMARK  114  A    between atoms: _273  and  _274
REMARK  115  A    between atoms: _273  and  _276
REMARK  116  A    between atoms: _276  and  _277
REMARK  117  A    between atoms: _277  and  _278
REMARK  118  A    between atoms: _278  and  _279
REMARK  119  A    between atoms: _288  and  _290
REMARK  120  A    between atoms: _290  and  _291
REMARK  121  A    between atoms: _290  and  _293
REMARK  122  A    between atoms: _293  and  _294
REMARK  123  A    between atoms: _299  and  _301
REMARK  124  A    between atoms: _301  and  _302
REMARK  125  A    between atoms: _301  and  _304
REMARK  126  A    between atoms: _304  and  _305
REMARK  127  A    between atoms: _311  and  _313
REMARK  128  A    between atoms: _313  and  _314
REMARK  129  A    between atoms: _313  and  _316
REMARK  130  A    between atoms: _316  and  _317
REMARK  131  A    between atoms: _322  and  _324
REMARK  132  A    between atoms: _324  and  _325
REMARK  133  A    between atoms: _324  and  _327
REMARK  134  A    between atoms: _327  and  _328
REMARK  135  A    between atoms: _331  and  _333
REMARK  136  A    between atoms: _333  and  _334
REMARK  137  A    between atoms: _337  and  _339
REMARK  138  A    between atoms: _339  and  _340
REMARK  139  A    between atoms: _343  and  _345
REMARK  140  A    between atoms: _345  and  _346
REMARK  141  A    between atoms: _345  and  _348
REMARK  142  A    between atoms: _348  and  _349
REMARK  143  A    between atoms: _349  and  _350
REMARK  144  A    between atoms: _350  and  _351
REMARK  145  A    between atoms: _360  and  _362
REMARK  146  A    between atoms: _362  and  _363
REMARK  147  A    between atoms: _362  and  _365
REMARK  148  A    between atoms: _365  and  _366
REMARK  149  A    between atoms: _371  and  _373
REMARK  150  A    between atoms: _373  and  _374
REMARK  151  A    between atoms: _373  and  _376
REMARK  152  A    between atoms: _378  and  _380
REMARK  153  A    between atoms: _380  and  _381
REMARK  154  A    between atoms: _380  and  _383
REMARK  155  A    between atoms: _383  and  _384
REMARK  156  A    between atoms: _384  and  _385
REMARK  157  A    between atoms: _387  and  _389
REMARK  158  A    between atoms: _389  and  _390
REMARK  159  A    between atoms: _389  and  _392
REMARK  160  A    between atoms: _392  and  _393
REMARK  161  A    between atoms: _396  and  _398
REMARK  162  A    between atoms: _398  and  _399
REMARK  163  A    between atoms: _398  and  _401
REMARK  164  A    between atoms: _401  and  _402
REMARK  165  A    between atoms: _405  and  _407
REMARK  166  A    between atoms: _407  and  _408
REMARK  167  A    between atoms: _407  and  _410
REMARK  168  A    between atoms: _410  and  _411
REMARK  169  A    between atoms: _411  and  _412
REMARK  170  A    between atoms: _412  and  _413
REMARK  171  A    between atoms: _413  and  _414
REMARK  172  A    between atoms: _418  and  _420
REMARK  173  A    between atoms: _420  and  _421
REMARK  174  A    between atoms: _420  and  _423
REMARK  175  A    between atoms: _426  and  _428
REMARK  176  A    between atoms: _428  and  _429
REMARK  177  A    between atoms: _432  and  _434
REMARK  178  A    between atoms: _434  and  _435
REMARK  179  A    between atoms: _434  and  _437
REMARK  180  A    between atoms: _437  and  _438
REMARK  181  A    between atoms: _441  and  _443
REMARK  182  A    between atoms: _443  and  _444
REMARK  183  A    between atoms: _443  and  _446
REMARK  184  A    between atoms: _446  and  _447
REMARK  185  A    between atoms: _453  and  _455
REMARK  186  A    between atoms: _455  and  _456
REMARK  187  A    between atoms: _455  and  _458
REMARK  188  A    between atoms: _458  and  _459
REMARK  189  A    between atoms: _462  and  _464
REMARK  190  A    between atoms: _464  and  _465
REMARK  191  A    between atoms: _468  and  _470
REMARK  192  A    between atoms: _470  and  _471
REMARK  193  A    between atoms: _470  and  _473
REMARK  194  A    between atoms: _473  and  _474
REMARK  195  A    between atoms: _474  and  _475
REMARK  196  A    between atoms: _475  and  _476
REMARK  197  A    between atoms: _485  and  _487
REMARK  198  A    between atoms: _487  and  _488
REMARK  199  A    between atoms: _487  and  _490
REMARK  200  A    between atoms: _490  and  _491
REMARK  201  A    between atoms: _494  and  _496
REMARK  202  A    between atoms: _496  and  _497
REMARK  203  A    between atoms: _496  and  _499
REMARK  204  A    between atoms: _499  and  _500
REMARK  205  A    between atoms: _500  and  _501
REMARK  206  A    between atoms: _503  and  _505
REMARK  207  A    between atoms: _505  and  _506
REMARK  208  A    between atoms: _505  and  _508
REMARK  209  A    between atoms: _508  and  _509
REMARK  210  A    between atoms: _514  and  _515
REMARK  211  A    between atoms: _517  and  _519
REMARK  212  A    between atoms: _519  and  _520
REMARK  213  A    between atoms: _519  and  _522
REMARK  214  A    between atoms: _522  and  _523
REMARK  215  A    between atoms: _526  and  _528
REMARK  216  A    between atoms: _528  and  _529
REMARK  217  A    between atoms: _528  and  _531
REMARK  218  A    between atoms: _531  and  _532
REMARK  219  A    between atoms: _532  and  _533
REMARK  220  A    between atoms: _533  and  _534
REMARK  221  A    between atoms: _534  and  _535
REMARK  222  A    between atoms: _539  and  _541
REMARK  223  A    between atoms: _541  and  _542
REMARK  224  A    between atoms: _541  and  _544
REMARK  225  A    between atoms: _544  and  _545
REMARK  226  A    between atoms: _550  and  _551
REMARK                            x       y       z     vdW  Elec       q    Type
REMARK                         _______ _______ _______ _____ _____    ______ ____
ROOT
ATOM      1  O   HOH     1      21.468  86.563  -4.537  0.00  0.00    +0.000 OA
ENDROOT
TORSDOF 0
REMARK  Name = ../refined-set-2016/3zc5/3zc5_pocket.pdb
REMARK  226 active torsions:
REMARK  status: ('A' for Active; 'I' for Inactive)
REMARK    1  A    between atoms: _1  and  _3
REMARK    2  A    between atoms: _3  and  _4
REMARK    3  A    between atoms: _3  and  _6
REMARK    4  A    between atoms: _9  and  _11
REMARK    5  A    between atoms: _11  and  _12
REMARK    6  A    between atoms: _11  and  _14
REMARK    7  A    between atoms: _14  and  _15
REMARK    8  A    between atoms: _18  and  _20
REMARK    9  A    between atoms: _20  and  _21
REMARK   10  A    between atoms: _23  and  _25
REMARK   11  A    between atoms: _25  and  _26
REMARK   12  A    between atoms: _25  and  _28
REMARK   13  A    between atoms: _28  and  _29
REMARK   14  A    between atoms: _29  and  _30
REMARK   15  A    between atoms: _30  and  _31
REMARK   16  A    between atoms: _40  and  _42
REMARK   17  A    between atoms: _42  and  _43
REMARK   18  A    between atoms: _45  and  _47
REMARK   19  A    between atoms: _47  and  _48
REMARK   20  A    between atoms: _47  and  _50
REMARK   21  A    between atoms: _52  and  _54
REMARK   22  A    between atoms: _54  and  _55
REMARK   23  A    between atoms: _54  and  _57
REMARK   24  A    between atoms: _60  and  _62
REMARK   25  A    between atoms: _62  and  _63
REMARK   26  A    between atoms: _62  and  _65
REMARK   27  A    between atoms: _65  and  _66
REMARK   28  A    between atoms: _71  and  _72
REMARK   29  A    between atoms: _74  and  _76
REMARK   30  A    between atoms: _76  and  _77
REMARK   31  A    between atoms: _76  and  _79
REMARK   32  A    between atoms: _79  and  _80
REMARK   33  A    between atoms: _85  and  _87
REMARK   34  A    between atoms: _87  and  _88
REMARK   35  A    between atoms: _90  and  _92
REMARK   36  A    between atoms: _92  and  _93
REMARK   37  A    between atoms: _92  and  _95
REMARK   38  A    between atoms: _95  and  _96
REMARK   39  A    between atoms: _101  and  _103
REMARK   40  A    between atoms: _103  and  _104
REMARK   41  A    between atoms: _103  and  _106
REMARK   42  A    between atoms: _108  and  _110
REMARK   43  A    between atoms: _110  and  _111
REMARK   44  A    between atoms: _114  and  _116
REMARK   45  A    between atoms: _116  and  _117
REMARK   46  A    between atoms: _116  and  _119
REMARK   47  A    between atoms: _122  and  _124
REMARK   48  A    between atoms: _124  and  _125
REMARK   49  A    between atoms: _124  and  _127
REMARK   50  A    between atoms: _127  and  _128
REMARK   51  A    between atoms: _128  and  _129
REMARK   52  A    between atoms: _129  and  _130
REMARK   53  A    between atoms: _130  and  _131
REMARK   54  A    between atoms: _135  and  _137
REMARK   55  A    between atoms: _137  and  _138
REMARK   56  A    between atoms: _137  and  _140
REMARK   57  A    between atoms: _140  and  _141
REMARK   58  A    between atoms: _143  and  _145
REMARK   59  A    between atoms: _145  and  _146
REMARK   60  A    between atoms: _145  and  _148
REMARK   61  A    between atoms: _148  and  _149
REMARK   62  A    between atoms: _149  and  _150
REMARK   63  A    between atoms: _152  and  _154
REMARK   64  A    between atoms: _154  and  _155
REMARK   65  A    between atoms: _154  and  _157
REMARK   66  A    between atoms: _157  and  _158
REMARK   67  A    between atoms: _161  and  _163
REMARK   68  A    between atoms: _163  and  _164
REMARK   69  A    between atoms: _163  and  _166
REMARK   70  A    between atoms: _166  and  _167
REMARK   71  A    between atoms: _169  and  _171
REMARK   72  A    between atoms: _171  and  _172
REMARK   73  A    between atoms: _171  and  _174
REMARK   74  A    between atoms: _177  and  _179
REMARK   75  A    between atoms: _179  and  _180
REMARK   76  A    between atoms: _179  and  _182
REMARK   77  A    between atoms: _185  and  _187
REMARK   78  A    between atoms: _187  and  _188
REMARK   79  A    between atoms: _187  and  _190
REMARK   80  A    between atoms: _190  and  _191
REMARK   81  A    between atoms: _195  and  _196
REMARK   82  A    between atoms: _201  and  _203
REMARK   83  A    between atoms: _203  and  _204
REMARK   84  A    between atoms: _203  and  _206
REMARK   85  A    between atoms: _206  and  _207
REMARK   86  A    between atoms: _212  and  _213
REMARK   87  A    between atoms: _215  and  _217
REMARK   88  A    between atoms: _217  and  _218
REMARK   89  A    between atoms: _217  and  _220
REMARK   90  A    between atoms: _220  and  _221
REMARK   91  A    between atoms: _221  and  _222
REMARK   92  A    between atoms: _224  and  _226
REMARK   93  A    between atoms: _226  and  _227
REMARK   94  A    between atoms: _226  and  _229
REMARK   95  A    between atoms: _229  and  _230
REMARK   96  A    between atoms: _230  and  _231
REMARK   97  A    between atoms: _231  and  _232
REMARK   98  A    between atoms: _232  and  _233
REMARK   99  A    between atoms: _237  and  _239
REMARK  100  A    between atoms: _239  and  _240
REMARK  101  A    between atoms: _239  and  _242
REMARK  102  A    between atoms: _242  and  _243
REMARK  103  A    between atoms: _248  and  _250
REMARK  104  A    between atoms: _250  and  _251
REMARK  105  A    between atoms: _253  and  _255
REMARK  106  A    between atoms: _255  and  _256
REMARK  107  A    between atoms: _255  and  _258
REMARK  108  A    between atoms: _258  and  _259
REMARK  109  A    between atoms: _262  and  _264
REMARK  110  A    between atoms: _264  and  _265
REMARK  111  A    between atoms: _264  and  _267
REMARK  112  A    between atoms: _267  and  _268
REMARK  113  A    between atoms: _271  and  _273
REMARK  114  A    between atoms: _273  and  _274
REMARK  115  A    between atoms: _273  and  _276
REMARK  116  A    between atoms: _276  and  _277
REMARK  117  A    between atoms: _277  and  _278
REMARK  118  A    between atoms: _278  and  _279
REMARK  119  A    between atoms: _288  and  _290
REMARK  120  A    between atoms: _290  and  _291
REMARK  121  A    between atoms: _290  and  _293
REMARK  122  A    between atoms: _293  and  _294
REMARK  123  A    between atoms: _299  and  _301
REMARK  124  A    between atoms: _301  and  _302
REMARK  125  A    between atoms: _301  and  _304
REMARK  126  A    between atoms: _304  and  _305
REMARK  127  A    between atoms: _311  and  _313
REMARK  128  A    between atoms: _313  and  _314
REMARK  129  A    between atoms: _313  and  _316
REMARK  130  A    between atoms: _316  and  _317
REMARK  131  A    between atoms: _322  and  _324
REMARK  132  A    between atoms: _324  and  _325
REMARK  133  A    between atoms: _324  and  _327
REMARK  134  A    between atoms: _327  and  _328
REMARK  135  A    between atoms: _331  and  _333
REMARK  136  A    between atoms: _333  and  _334
REMARK  137  A    between atoms: _337  and  _339
REMARK  138  A    between atoms: _339  and  _340
REMARK  139  A    between atoms: _343  and  _345
REMARK  140  A    between atoms: _345  and  _346
REMARK  141  A    between atoms: _345  and  _348
REMARK  142  A    between atoms: _348  and  _349
REMARK  143  A    between atoms: _349  and  _350
REMARK  144  A    between atoms: _350  and  _351
REMARK  145  A    between atoms: _360  and  _362
REMARK  146  A    between atoms: _362  and  _363
REMARK  147  A    between atoms: _362  and  _365
REMARK  148  A    between atoms: _365  and  _366
REMARK  149  A    between atoms: _371  and  _373
REMARK  150  A    between atoms: _373  and  _374
REMARK  151  A    between atoms: _373  and  _376
REMARK  152  A    between atoms: _378  and  _380
REMARK  153  A    between atoms: _380  and  _381
REMARK  154  A    between atoms: _380  and  _383
REMARK  155  A    between atoms: _383  and  _384
REMARK  156  A    between atoms: _384  and  _385
REMARK  157  A    between atoms: _387  and  _389
REMARK  158  A    between atoms: _389  and  _390
REMARK  159  A    between atoms: _389  and  _392
REMARK  160  A    between atoms: _392  and  _393
REMARK  161  A    between atoms: _396  and  _398
REMARK  162  A    between atoms: _398  and  _399
REMARK  163  A    between atoms: _398  and  _401
REMARK  164  A    between atoms: _401  and  _402
REMARK  165  A    between atoms: _405  and  _407
REMARK  166  A    between atoms: _407  and  _408
REMARK  167  A    between atoms: _407  and  _410
REMARK  168  A    between atoms: _410  and  _411
REMARK  169  A    between atoms: _411  and  _412
REMARK  170  A    between atoms: _412  and  _413
REMARK  171  A    between atoms: _413  and  _414
REMARK  172  A    between atoms: _418  and  _420
REMARK  173  A    between atoms: _420  and  _421
REMARK  174  A    between atoms: _420  and  _423
REMARK  175  A    between atoms: _426  and  _428
REMARK  176  A    between atoms: _428  and  _429
REMARK  177  A    between atoms: _432  and  _434
REMARK  178  A    between atoms: _434  and  _435
REMARK  179  A    between atoms: _434  and  _437
REMARK  180  A    between atoms: _437  and  _438
REMARK  181  A    between atoms: _441  and  _443
REMARK  182  A    between atoms: _443  and  _444
REMARK  183  A    between atoms: _443  and  _446
REMARK  184  A    between atoms: _446  and  _447
REMARK  185  A    between atoms: _453  and  _455
REMARK  186  A    between atoms: _455  and  _456
REMARK  187  A    between atoms: _455  and  _458
REMARK  188  A    between atoms: _458  and  _459
REMARK  189  A    between atoms: _462  and  _464
REMARK  190  A    between atoms: _464  and  _465
REMARK  191  A    between atoms: _468  and  _470
REMARK  192  A    between atoms: _470  and  _471
REMARK  193  A    between atoms: _470  and  _473
REMARK  194  A    between atoms: _473  and  _474
REMARK  195  A    between atoms: _474  and  _475
REMARK  196  A    between atoms: _475  and  _476
REMARK  197  A    between atoms: _485  and  _487
REMARK  198  A    between atoms: _487  and  _488
REMARK  199  A    between atoms: _487  and  _490
REMARK  200  A    between atoms: _490  and  _491
REMARK  201  A    between atoms: _494  and  _496
REMARK  202  A    between atoms: _496  and  _497
REMARK  203  A    between atoms: _496  and  _499
REMARK  204  A    between atoms: _499  and  _500
REMARK  205  A    between atoms: _500  and  _501
REMARK  206  A    between atoms: _503  and  _505
REMARK  207  A    between atoms: _505  and  _506
REMARK  208  A    between atoms: _505  and  _508
REMARK  209  A    between atoms: _508  and  _509
REMARK  210  A    between atoms: _514  and  _515
REMARK  211  A    between atoms: _517  and  _519
REMARK  212  A    between atoms: _519  and  _520
REMARK  213  A    between atoms: _519  and  _522
REMARK  214  A    between atoms: _522  and  _523
REMARK  215  A    between atoms: _526  and  _528
REMARK  216  A    between atoms: _528  and  _529
REMARK  217  A    between atoms: _528  and  _531
REMARK  218  A    between atoms: _531  and  _532
REMARK  219  A    between atoms: _532  and  _533
REMARK  220  A    between atoms: _533  and  _534
REMARK  221  A    between atoms: _534  and  _535
REMARK  222  A    between atoms: _539  and  _541
REMARK  223  A    between atoms: _541  and  _542
REMARK  224  A    between atoms: _541  and  _544
REMARK  225  A    between atoms: _544  and  _545
REMARK  226  A    between atoms: _550  and  _551
REMARK                            x       y       z     vdW  Elec       q    Type
REMARK                         _______ _______ _______ _____ _____    ______ ____
ROOT
ATOM      1  O   HOH     1      22.012  83.335  -0.020  0.00  0.00    +0.000 OA
ENDROOT
TORSDOF 0
REMARK  Name = ../refined-set-2016/3zc5/3zc5_pocket.pdb
REMARK  226 active torsions:
REMARK  status: ('A' for Active; 'I' for Inactive)
REMARK    1  A    between atoms: _1  and  _3
REMARK    2  A    between atoms: _3  and  _4
REMARK    3  A    between atoms: _3  and  _6
REMARK    4  A    between atoms: _9  and  _11
REMARK    5  A    between atoms: _11  and  _12
REMARK    6  A    between atoms: _11  and  _14
REMARK    7  A    between atoms: _14  and  _15
REMARK    8  A    between atoms: _18  and  _20
REMARK    9  A    between atoms: _20  and  _21
REMARK   10  A    between atoms: _23  and  _25
REMARK   11  A    between atoms: _25  and  _26
REMARK   12  A    between atoms: _25  and  _28
REMARK   13  A    between atoms: _28  and  _29
REMARK   14  A    between atoms: _29  and  _30
REMARK   15  A    between atoms: _30  and  _31
REMARK   16  A    between atoms: _40  and  _42
REMARK   17  A    between atoms: _42  and  _43
REMARK   18  A    between atoms: _45  and  _47
REMARK   19  A    between atoms: _47  and  _48
REMARK   20  A    between atoms: _47  and  _50
REMARK   21  A    between atoms: _52  and  _54
REMARK   22  A    between atoms: _54  and  _55
REMARK   23  A    between atoms: _54  and  _57
REMARK   24  A    between atoms: _60  and  _62
REMARK   25  A    between atoms: _62  and  _63
REMARK   26  A    between atoms: _62  and  _65
REMARK   27  A    between atoms: _65  and  _66
REMARK   28  A    between atoms: _71  and  _72
REMARK   29  A    between atoms: _74  and  _76
REMARK   30  A    between atoms: _76  and  _77
REMARK   31  A    between atoms: _76  and  _79
REMARK   32  A    between atoms: _79  and  _80
REMARK   33  A    between atoms: _85  and  _87
REMARK   34  A    between atoms: _87  and  _88
REMARK   35  A    between atoms: _90  and  _92
REMARK   36  A    between atoms: _92  and  _93
REMARK   37  A    between atoms: _92  and  _95
REMARK   38  A    between atoms: _95  and  _96
REMARK   39  A    between atoms: _101  and  _103
REMARK   40  A    between atoms: _103  and  _104
REMARK   41  A    between atoms: _103  and  _106
REMARK   42  A    between atoms: _108  and  _110
REMARK   43  A    between atoms: _110  and  _111
REMARK   44  A    between atoms: _114  and  _116
REMARK   45  A    between atoms: _116  and  _117
REMARK   46  A    between atoms: _116  and  _119
REMARK   47  A    between atoms: _122  and  _124
REMARK   48  A    between atoms: _124  and  _125
REMARK   49  A    between atoms: _124  and  _127
REMARK   50  A    between atoms: _127  and  _128
REMARK   51  A    between atoms: _128  and  _129
REMARK   52  A    between atoms: _129  and  _130
REMARK   53  A    between atoms: _130  and  _131
REMARK   54  A    between atoms: _135  and  _137
REMARK   55  A    between atoms: _137  and  _138
REMARK   56  A    between atoms: _137  and  _140
REMARK   57  A    between atoms: _140  and  _141
REMARK   58  A    between atoms: _143  and  _145
REMARK   59  A    between atoms: _145  and  _146
REMARK   60  A    between atoms: _145  and  _148
REMARK   61  A    between atoms: _148  and  _149
REMARK   62  A    between atoms: _149  and  _150
REMARK   63  A    between atoms: _152  and  _154
REMARK   64  A    between atoms: _154  and  _155
REMARK   65  A    between atoms: _154  and  _157
REMARK   66  A    between atoms: _157  and  _158
REMARK   67  A    between atoms: _161  and  _163
REMARK   68  A    between atoms: _163  and  _164
REMARK   69  A    between atoms: _163  and  _166
REMARK   70  A    between atoms: _166  and  _167
REMARK   71  A    between atoms: _169  and  _171
REMARK   72  A    between atoms: _171  and  _172
REMARK   73  A    between atoms: _171  and  _174
REMARK   74  A    between atoms: _177  and  _179
REMARK   75  A    between atoms: _179  and  _180
REMARK   76  A    between atoms: _179  and  _182
REMARK   77  A    between atoms: _185  and  _187
REMARK   78  A    between atoms: _187  and  _188
REMARK   79  A    between atoms: _187  and  _190
REMARK   80  A    between atoms: _190  and  _191
REMARK   81  A    between atoms: _195  and  _196
REMARK   82  A    between atoms: _201  and  _203
REMARK   83  A    between atoms: _203  and  _204
REMARK   84  A    between atoms: _203  and  _206
REMARK   85  A    between atoms: _206  and  _207
REMARK   86  A    between atoms: _212  and  _213
REMARK   87  A    between atoms: _215  and  _217
REMARK   88  A    between atoms: _217  and  _218
REMARK   89  A    between atoms: _217  and  _220
REMARK   90  A    between atoms: _220  and  _221
REMARK   91  A    between atoms: _221  and  _222
REMARK   92  A    between atoms: _224  and  _226
REMARK   93  A    between atoms: _226  and  _227
REMARK   94  A    between atoms: _226  and  _229
REMARK   95  A    between atoms: _229  and  _230
REMARK   96  A    between atoms: _230  and  _231
REMARK   97  A    between atoms: _231  and  _232
REMARK   98  A    between atoms: _232  and  _233
REMARK   99  A    between atoms: _237  and  _239
REMARK  100  A    between atoms: _239  and  _240
REMARK  101  A    between atoms: _239  and  _242
REMARK  102  A    between atoms: _242  and  _243
REMARK  103  A    between atoms: _248  and  _250
REMARK  104  A    between atoms: _250  and  _251
REMARK  105  A    between atoms: _253  and  _255
REMARK  106  A    between atoms: _255  and  _256
REMARK  107  A    between atoms: _255  and  _258
REMARK  108  A    between atoms: _258  and  _259
REMARK  109  A    between atoms: _262  and  _264
REMARK  110  A    between atoms: _264  and  _265
REMARK  111  A    between atoms: _264  and  _267
REMARK  112  A    between atoms: _267  and  _268
REMARK  113  A    between atoms: _271  and  _273
REMARK  114  A    between atoms: _273  and  _274
REMARK  115  A    between atoms: _273  and  _276
REMARK  116  A    between atoms: _276  and  _277
REMARK  117  A    between atoms: _277  and  _278
REMARK  118  A    between atoms: _278  and  _279
REMARK  119  A    between atoms: _288  and  _290
REMARK  120  A    between atoms: _290  and  _291
REMARK  121  A    between atoms: _290  and  _293
REMARK  122  A    between atoms: _293  and  _294
REMARK  123  A    between atoms: _299  and  _301
REMARK  124  A    between atoms: _301  and  _302
REMARK  125  A    between atoms: _301  and  _304
REMARK  126  A    between atoms: _304  and  _305
REMARK  127  A    between atoms: _311  and  _313
REMARK  128  A    between atoms: _313  and  _314
REMARK  129  A    between atoms: _313  and  _316
REMARK  130  A    between atoms: _316  and  _317
REMARK  131  A    between atoms: _322  and  _324
REMARK  132  A    between atoms: _324  and  _325
REMARK  133  A    between atoms: _324  and  _327
REMARK  134  A    between atoms: _327  and  _328
REMARK  135  A    between atoms: _331  and  _333
REMARK  136  A    between atoms: _333  and  _334
REMARK  137  A    between atoms: _337  and  _339
REMARK  138  A    between atoms: _339  and  _340
REMARK  139  A    between atoms: _343  and  _345
REMARK  140  A    between atoms: _345  and  _346
REMARK  141  A    between atoms: _345  and  _348
REMARK  142  A    between atoms: _348  and  _349
REMARK  143  A    between atoms: _349  and  _350
REMARK  144  A    between atoms: _350  and  _351
REMARK  145  A    between atoms: _360  and  _362
REMARK  146  A    between atoms: _362  and  _363
REMARK  147  A    between atoms: _362  and  _365
REMARK  148  A    between atoms: _365  and  _366
REMARK  149  A    between atoms: _371  and  _373
REMARK  150  A    between atoms: _373  and  _374
REMARK  151  A    between atoms: _373  and  _376
REMARK  152  A    between atoms: _378  and  _380
REMARK  153  A    between atoms: _380  and  _381
REMARK  154  A    between atoms: _380  and  _383
REMARK  155  A    between atoms: _383  and  _384
REMARK  156  A    between atoms: _384  and  _385
REMARK  157  A    between atoms: _387  and  _389
REMARK  158  A    between atoms: _389  and  _390
REMARK  159  A    between atoms: _389  and  _392
REMARK  160  A    between atoms: _392  and  _393
REMARK  161  A    between atoms: _396  and  _398
REMARK  162  A    between atoms: _398  and  _399
REMARK  163  A    between atoms: _398  and  _401
REMARK  164  A    between atoms: _401  and  _402
REMARK  165  A    between atoms: _405  and  _407
REMARK  166  A    between atoms: _407  and  _408
REMARK  167  A    between atoms: _407  and  _410
REMARK  168  A    between atoms: _410  and  _411
REMARK  169  A    between atoms: _411  and  _412
REMARK  170  A    between atoms: _412  and  _413
REMARK  171  A    between atoms: _413  and  _414
REMARK  172  A    between atoms: _418  and  _420
REMARK  173  A    between atoms: _420  and  _421
REMARK  174  A    between atoms: _420  and  _423
REMARK  175  A    between atoms: _426  and  _428
REMARK  176  A    between atoms: _428  and  _429
REMARK  177  A    between atoms: _432  and  _434
REMARK  178  A    between atoms: _434  and  _435
REMARK  179  A    between atoms: _434  and  _437
REMARK  180  A    between atoms: _437  and  _438
REMARK  181  A    between atoms: _441  and  _443
REMARK  182  A    between atoms: _443  and  _444
REMARK  183  A    between atoms: _443  and  _446
REMARK  184  A    between atoms: _446  and  _447
REMARK  185  A    between atoms: _453  and  _455
REMARK  186  A    between atoms: _455  and  _456
REMARK  187  A    between atoms: _455  and  _458
REMARK  188  A    between atoms: _458  and  _459
REMARK  189  A    between atoms: _462  and  _464
REMARK  190  A    between atoms: _464  and  _465
REMARK  191  A    between atoms: _468  and  _470
REMARK  192  A    between atoms: _470  and  _471
REMARK  193  A    between atoms: _470  and  _473
REMARK  194  A    between atoms: _473  and  _474
REMARK  195  A    between atoms: _474  and  _475
REMARK  196  A    between atoms: _475  and  _476
REMARK  197  A    between atoms: _485  and  _487
REMARK  198  A    between atoms: _487  and  _488
REMARK  199  A    between atoms: _487  and  _490
REMARK  200  A    between atoms: _490  and  _491
REMARK  201  A    between atoms: _494  and  _496
REMARK  202  A    between atoms: _496  and  _497
REMARK  203  A    between atoms: _496  and  _499
REMARK  204  A    between atoms: _499  and  _500
REMARK  205  A    between atoms: _500  and  _501
REMARK  206  A    between atoms: _503  and  _505
REMARK  207  A    between atoms: _505  and  _506
REMARK  208  A    between atoms: _505  and  _508
REMARK  209  A    between atoms: _508  and  _509
REMARK  210  A    between atoms: _514  and  _515
REMARK  211  A    between atoms: _517  and  _519
REMARK  212  A    between atoms: _519  and  _520
REMARK  213  A    between atoms: _519  and  _522
REMARK  214  A    between atoms: _522  and  _523
REMARK  215  A    between atoms: _526  and  _528
REMARK  216  A    between atoms: _528  and  _529
REMARK  217  A    between atoms: _528  and  _531
REMARK  218  A    between atoms: _531  and  _532
REMARK  219  A    between atoms: _532  and  _533
REMARK  220  A    between atoms: _533  and  _534
REMARK  221  A    between atoms: _534  and  _535
REMARK  222  A    between atoms: _539  and  _541
REMARK  223  A    between atoms: _541  and  _542
REMARK  224  A    between atoms: _541  and  _544
REMARK  225  A    between atoms: _544  and  _545
REMARK  226  A    between atoms: _550  and  _551
REMARK                            x       y       z     vdW  Elec       q    Type
REMARK                         _______ _______ _______ _____ _____    ______ ____
ROOT
ATOM      1  O   HOH     1      24.156  84.674  -1.030  0.00  0.00    +0.000 OA
ENDROOT
TORSDOF 0
REMARK  Name = ../refined-set-2016/3zc5/3zc5_pocket.pdb
REMARK  226 active torsions:
REMARK  status: ('A' for Active; 'I' for Inactive)
REMARK    1  A    between atoms: _1  and  _3
REMARK    2  A    between atoms: _3  and  _4
REMARK    3  A    between atoms: _3  and  _6
REMARK    4  A    between atoms: _9  and  _11
REMARK    5  A    between atoms: _11  and  _12
REMARK    6  A    between atoms: _11  and  _14
REMARK    7  A    between atoms: _14  and  _15
REMARK    8  A    between atoms: _18  and  _20
REMARK    9  A    between atoms: _20  and  _21
REMARK   10  A    between atoms: _23  and  _25
REMARK   11  A    between atoms: _25  and  _26
REMARK   12  A    between atoms: _25  and  _28
REMARK   13  A    between atoms: _28  and  _29
REMARK   14  A    between atoms: _29  and  _30
REMARK   15  A    between atoms: _30  and  _31
REMARK   16  A    between atoms: _40  and  _42
REMARK   17  A    between atoms: _42  and  _43
REMARK   18  A    between atoms: _45  and  _47
REMARK   19  A    between atoms: _47  and  _48
REMARK   20  A    between atoms: _47  and  _50
REMARK   21  A    between atoms: _52  and  _54
REMARK   22  A    between atoms: _54  and  _55
REMARK   23  A    between atoms: _54  and  _57
REMARK   24  A    between atoms: _60  and  _62
REMARK   25  A    between atoms: _62  and  _63
REMARK   26  A    between atoms: _62  and  _65
REMARK   27  A    between atoms: _65  and  _66
REMARK   28  A    between atoms: _71  and  _72
REMARK   29  A    between atoms: _74  and  _76
REMARK   30  A    between atoms: _76  and  _77
REMARK   31  A    between atoms: _76  and  _79
REMARK   32  A    between atoms: _79  and  _80
REMARK   33  A    between atoms: _85  and  _87
REMARK   34  A    between atoms: _87  and  _88
REMARK   35  A    between atoms: _90  and  _92
REMARK   36  A    between atoms: _92  and  _93
REMARK   37  A    between atoms: _92  and  _95
REMARK   38  A    between atoms: _95  and  _96
REMARK   39  A    between atoms: _101  and  _103
REMARK   40  A    between atoms: _103  and  _104
REMARK   41  A    between atoms: _103  and  _106
REMARK   42  A    between atoms: _108  and  _110
REMARK   43  A    between atoms: _110  and  _111
REMARK   44  A    between atoms: _114  and  _116
REMARK   45  A    between atoms: _116  and  _117
REMARK   46  A    between atoms: _116  and  _119
REMARK   47  A    between atoms: _122  and  _124
REMARK   48  A    between atoms: _124  and  _125
REMARK   49  A    between atoms: _124  and  _127
REMARK   50  A    between atoms: _127  and  _128
REMARK   51  A    between atoms: _128  and  _129
REMARK   52  A    between atoms: _129  and  _130
REMARK   53  A    between atoms: _130  and  _131
REMARK   54  A    between atoms: _135  and  _137
REMARK   55  A    between atoms: _137  and  _138
REMARK   56  A    between atoms: _137  and  _140
REMARK   57  A    between atoms: _140  and  _141
REMARK   58  A    between atoms: _143  and  _145
REMARK   59  A    between atoms: _145  and  _146
REMARK   60  A    between atoms: _145  and  _148
REMARK   61  A    between atoms: _148  and  _149
REMARK   62  A    between atoms: _149  and  _150
REMARK   63  A    between atoms: _152  and  _154
REMARK   64  A    between atoms: _154  and  _155
REMARK   65  A    between atoms: _154  and  _157
REMARK   66  A    between atoms: _157  and  _158
REMARK   67  A    between atoms: _161  and  _163
REMARK   68  A    between atoms: _163  and  _164
REMARK   69  A    between atoms: _163  and  _166
REMARK   70  A    between atoms: _166  and  _167
REMARK   71  A    between atoms: _169  and  _171
REMARK   72  A    between atoms: _171  and  _172
REMARK   73  A    between atoms: _171  and  _174
REMARK   74  A    between atoms: _177  and  _179
REMARK   75  A    between atoms: _179  and  _180
REMARK   76  A    between atoms: _179  and  _182
REMARK   77  A    between atoms: _185  and  _187
REMARK   78  A    between atoms: _187  and  _188
REMARK   79  A    between atoms: _187  and  _190
REMARK   80  A    between atoms: _190  and  _191
REMARK   81  A    between atoms: _195  and  _196
REMARK   82  A    between atoms: _201  and  _203
REMARK   83  A    between atoms: _203  and  _204
REMARK   84  A    between atoms: _203  and  _206
REMARK   85  A    between atoms: _206  and  _207
REMARK   86  A    between atoms: _212  and  _213
REMARK   87  A    between atoms: _215  and  _217
REMARK   88  A    between atoms: _217  and  _218
REMARK   89  A    between atoms: _217  and  _220
REMARK   90  A    between atoms: _220  and  _221
REMARK   91  A    between atoms: _221  and  _222
REMARK   92  A    between atoms: _224  and  _226
REMARK   93  A    between atoms: _226  and  _227
REMARK   94  A    between atoms: _226  and  _229
REMARK   95  A    between atoms: _229  and  _230
REMARK   96  A    between atoms: _230  and  _231
REMARK   97  A    between atoms: _231  and  _232
REMARK   98  A    between atoms: _232  and  _233
REMARK   99  A    between atoms: _237  and  _239
REMARK  100  A    between atoms: _239  and  _240
REMARK  101  A    between atoms: _239  and  _242
REMARK  102  A    between atoms: _242  and  _243
REMARK  103  A    between atoms: _248  and  _250
REMARK  104  A    between atoms: _250  and  _251
REMARK  105  A    between atoms: _253  and  _255
REMARK  106  A    between atoms: _255  and  _256
REMARK  107  A    between atoms: _255  and  _258
REMARK  108  A    between atoms: _258  and  _259
REMARK  109  A    between atoms: _262  and  _264
REMARK  110  A    between atoms: _264  and  _265
REMARK  111  A    between atoms: _264  and  _267
REMARK  112  A    between atoms: _267  and  _268
REMARK  113  A    between atoms: _271  and  _273
REMARK  114  A    between atoms: _273  and  _274
REMARK  115  A    between atoms: _273  and  _276
REMARK  116  A    between atoms: _276  and  _277
REMARK  117  A    between atoms: _277  and  _278
REMARK  118  A    between atoms: _278  and  _279
REMARK  119  A    between atoms: _288  and  _290
REMARK  120  A    between atoms: _290  and  _291
REMARK  121  A    between atoms: _290  and  _293
REMARK  122  A    between atoms: _293  and  _294
REMARK  123  A    between atoms: _299  and  _301
REMARK  124  A    between atoms: _301  and  _302
REMARK  125  A    between atoms: _301  and  _304
REMARK  126  A    between atoms: _304  and  _305
REMARK  127  A    between atoms: _311  and  _313
REMARK  128  A    between atoms: _313  and  _314
REMARK  129  A    between atoms: _313  and  _316
REMARK  130  A    between atoms: _316  and  _317
REMARK  131  A    between atoms: _322  and  _324
REMARK  132  A    between atoms: _324  and  _325
REMARK  133  A    between atoms: _324  and  _327
REMARK  134  A    between atoms: _327  and  _328
REMARK  135  A    between atoms: _331  and  _333
REMARK  136  A    between atoms: _333  and  _334
REMARK  137  A    between atoms: _337  and  _339
REMARK  138  A    between atoms: _339  and  _340
REMARK  139  A    between atoms: _343  and  _345
REMARK  140  A    between atoms: _345  and  _346
REMARK  141  A    between atoms: _345  and  _348
REMARK  142  A    between atoms: _348  and  _349
REMARK  143  A    between atoms: _349  and  _350
REMARK  144  A    between atoms: _350  and  _351
REMARK  145  A    between atoms: _360  and  _362
REMARK  146  A    between atoms: _362  and  _363
REMARK  147  A    between atoms: _362  and  _365
REMARK  148  A    between atoms: _365  and  _366
REMARK  149  A    between atoms: _371  and  _373
REMARK  150  A    between atoms: _373  and  _374
REMARK  151  A    between atoms: _373  and  _376
REMARK  152  A    between atoms: _378  and  _380
REMARK  153  A    between atoms: _380  and  _381
REMARK  154  A    between atoms: _380  and  _383
REMARK  155  A    between atoms: _383  and  _384
REMARK  156  A    between atoms: _384  and  _385
REMARK  157  A    between atoms: _387  and  _389
REMARK  158  A    between atoms: _389  and  _390
REMARK  159  A    between atoms: _389  and  _392
REMARK  160  A    between atoms: _392  and  _393
REMARK  161  A    between atoms: _396  and  _398
REMARK  162  A    between atoms: _398  and  _399
REMARK  163  A    between atoms: _398  and  _401
REMARK  164  A    between atoms: _401  and  _402
REMARK  165  A    between atoms: _405  and  _407
REMARK  166  A    between atoms: _407  and  _408
REMARK  167  A    between atoms: _407  and  _410
REMARK  168  A    between atoms: _410  and  _411
REMARK  169  A    between atoms: _411  and  _412
REMARK  170  A    between atoms: _412  and  _413
REMARK  171  A    between atoms: _413  and  _414
REMARK  172  A    between atoms: _418  and  _420
REMARK  173  A    between atoms: _420  and  _421
REMARK  174  A    between atoms: _420  and  _423
REMARK  175  A    between atoms: _426  and  _428
REMARK  176  A    between atoms: _428  and  _429
REMARK  177  A    between atoms: _432  and  _434
REMARK  178  A    between atoms: _434  and  _435
REMARK  179  A    between atoms: _434  and  _437
REMARK  180  A    between atoms: _437  and  _438
REMARK  181  A    between atoms: _441  and  _443
REMARK  182  A    between atoms: _443  and  _444
REMARK  183  A    between atoms: _443  and  _446
REMARK  184  A    between atoms: _446  and  _447
REMARK  185  A    between atoms: _453  and  _455
REMARK  186  A    between atoms: _455  and  _456
REMARK  187  A    between atoms: _455  and  _458
REMARK  188  A    between atoms: _458  and  _459
REMARK  189  A    between atoms: _462  and  _464
REMARK  190  A    between atoms: _464  and  _465
REMARK  191  A    between atoms: _468  and  _470
REMARK  192  A    between atoms: _470  and  _471
REMARK  193  A    between atoms: _470  and  _473
REMARK  194  A    between atoms: _473  and  _474
REMARK  195  A    between atoms: _474  and  _475
REMARK  196  A    between atoms: _475  and  _476
REMARK  197  A    between atoms: _485  and  _487
REMARK  198  A    between atoms: _487  and  _488
REMARK  199  A    between atoms: _487  and  _490
REMARK  200  A    between atoms: _490  and  _491
REMARK  201  A    between atoms: _494  and  _496
REMARK  202  A    between atoms: _496  and  _497
REMARK  203  A    between atoms: _496  and  _499
REMARK  204  A    between atoms: _499  and  _500
REMARK  205  A    between atoms: _500  and  _501
REMARK  206  A    between atoms: _503  and  _505
REMARK  207  A    between atoms: _505  and  _506
REMARK  208  A    between atoms: _505  and  _508
REMARK  209  A    between atoms: _508  and  _509
REMARK  210  A    between atoms: _514  and  _515
REMARK  211  A    between atoms: _517  and  _519
REMARK  212  A    between atoms: _519  and  _520
REMARK  213  A    between atoms: _519  and  _522
REMARK  214  A    between atoms: _522  and  _523
REMARK  215  A    between atoms: _526  and  _528
REMARK  216  A    between atoms: _528  and  _529
REMARK  217  A    between atoms: _528  and  _531
REMARK  218  A    between atoms: _531  and  _532
REMARK  219  A    between atoms: _532  and  _533
REMARK  220  A    between atoms: _533  and  _534
REMARK  221  A    between atoms: _534  and  _535
REMARK  222  A    between atoms: _539  and  _541
REMARK  223  A    between atoms: _541  and  _542
REMARK  224  A    between atoms: _541  and  _544
REMARK  225  A    between atoms: _544  and  _545
REMARK  226  A    between atoms: _550  and  _551
REMARK                            x       y       z     vdW  Elec       q    Type
REMARK                         _______ _______ _______ _____ _____    ______ ____
ROOT
ATOM      1  O   HOH     1      19.178  86.104  -3.729  0.00  0.00    +0.000 OA
ENDROOT
TORSDOF 0
REMARK  Name = ../refined-set-2016/3zc5/3zc5_pocket.pdb
REMARK  226 active torsions:
REMARK  status: ('A' for Active; 'I' for Inactive)
REMARK    1  A    between atoms: _1  and  _3
REMARK    2  A    between atoms: _3  and  _4
REMARK    3  A    between atoms: _3  and  _6
REMARK    4  A    between atoms: _9  and  _11
REMARK    5  A    between atoms: _11  and  _12
REMARK    6  A    between atoms: _11  and  _14
REMARK    7  A    between atoms: _14  and  _15
REMARK    8  A    between atoms: _18  and  _20
REMARK    9  A    between atoms: _20  and  _21
REMARK   10  A    between atoms: _23  and  _25
REMARK   11  A    between atoms: _25  and  _26
REMARK   12  A    between atoms: _25  and  _28
REMARK   13  A    between atoms: _28  and  _29
REMARK   14  A    between atoms: _29  and  _30
REMARK   15  A    between atoms: _30  and  _31
REMARK   16  A    between atoms: _40  and  _42
REMARK   17  A    between atoms: _42  and  _43
REMARK   18  A    between atoms: _45  and  _47
REMARK   19  A    between atoms: _47  and  _48
REMARK   20  A    between atoms: _47  and  _50
REMARK   21  A    between atoms: _52  and  _54
REMARK   22  A    between atoms: _54  and  _55
REMARK   23  A    between atoms: _54  and  _57
REMARK   24  A    between atoms: _60  and  _62
REMARK   25  A    between atoms: _62  and  _63
REMARK   26  A    between atoms: _62  and  _65
REMARK   27  A    between atoms: _65  and  _66
REMARK   28  A    between atoms: _71  and  _72
REMARK   29  A    between atoms: _74  and  _76
REMARK   30  A    between atoms: _76  and  _77
REMARK   31  A    between atoms: _76  and  _79
REMARK   32  A    between atoms: _79  and  _80
REMARK   33  A    between atoms: _85  and  _87
REMARK   34  A    between atoms: _87  and  _88
REMARK   35  A    between atoms: _90  and  _92
REMARK   36  A    between atoms: _92  and  _93
REMARK   37  A    between atoms: _92  and  _95
REMARK   38  A    between atoms: _95  and  _96
REMARK   39  A    between atoms: _101  and  _103
REMARK   40  A    between atoms: _103  and  _104
REMARK   41  A    between atoms: _103  and  _106
REMARK   42  A    between atoms: _108  and  _110
REMARK   43  A    between atoms: _110  and  _111
REMARK   44  A    between atoms: _114  and  _116
REMARK   45  A    between atoms: _116  and  _117
REMARK   46  A    between atoms: _116  and  _119
REMARK   47  A    between atoms: _122  and  _124
REMARK   48  A    between atoms: _124  and  _125
REMARK   49  A    between atoms: _124  and  _127
REMARK   50  A    between atoms: _127  and  _128
REMARK   51  A    between atoms: _128  and  _129
REMARK   52  A    between atoms: _129  and  _130
REMARK   53  A    between atoms: _130  and  _131
REMARK   54  A    between atoms: _135  and  _137
REMARK   55  A    between atoms: _137  and  _138
REMARK   56  A    between atoms: _137  and  _140
REMARK   57  A    between atoms: _140  and  _141
REMARK   58  A    between atoms: _143  and  _145
REMARK   59  A    between atoms: _145  and  _146
REMARK   60  A    between atoms: _145  and  _148
REMARK   61  A    between atoms: _148  and  _149
REMARK   62  A    between atoms: _149  and  _150
REMARK   63  A    between atoms: _152  and  _154
REMARK   64  A    between atoms: _154  and  _155
REMARK   65  A    between atoms: _154  and  _157
REMARK   66  A    between atoms: _157  and  _158
REMARK   67  A    between atoms: _161  and  _163
REMARK   68  A    between atoms: _163  and  _164
REMARK   69  A    between atoms: _163  and  _166
REMARK   70  A    between atoms: _166  and  _167
REMARK   71  A    between atoms: _169  and  _171
REMARK   72  A    between atoms: _171  and  _172
REMARK   73  A    between atoms: _171  and  _174
REMARK   74  A    between atoms: _177  and  _179
REMARK   75  A    between atoms: _179  and  _180
REMARK   76  A    between atoms: _179  and  _182
REMARK   77  A    between atoms: _185  and  _187
REMARK   78  A    between atoms: _187  and  _188
REMARK   79  A    between atoms: _187  and  _190
REMARK   80  A    between atoms: _190  and  _191
REMARK   81  A    between atoms: _195  and  _196
REMARK   82  A    between atoms: _201  and  _203
REMARK   83  A    between atoms: _203  and  _204
REMARK   84  A    between atoms: _203  and  _206
REMARK   85  A    between atoms: _206  and  _207
REMARK   86  A    between atoms: _212  and  _213
REMARK   87  A    between atoms: _215  and  _217
REMARK   88  A    between atoms: _217  and  _218
REMARK   89  A    between atoms: _217  and  _220
REMARK   90  A    between atoms: _220  and  _221
REMARK   91  A    between atoms: _221  and  _222
REMARK   92  A    between atoms: _224  and  _226
REMARK   93  A    between atoms: _226  and  _227
REMARK   94  A    between atoms: _226  and  _229
REMARK   95  A    between atoms: _229  and  _230
REMARK   96  A    between atoms: _230  and  _231
REMARK   97  A    between atoms: _231  and  _232
REMARK   98  A    between atoms: _232  and  _233
REMARK   99  A    between atoms: _237  and  _239
REMARK  100  A    between atoms: _239  and  _240
REMARK  101  A    between atoms: _239  and  _242
REMARK  102  A    between atoms: _242  and  _243
REMARK  103  A    between atoms: _248  and  _250
REMARK  104  A    between atoms: _250  and  _251
REMARK  105  A    between atoms: _253  and  _255
REMARK  106  A    between atoms: _255  and  _256
REMARK  107  A    between atoms: _255  and  _258
REMARK  108  A    between atoms: _258  and  _259
REMARK  109  A    between atoms: _262  and  _264
REMARK  110  A    between atoms: _264  and  _265
REMARK  111  A    between atoms: _264  and  _267
REMARK  112  A    between atoms: _267  and  _268
REMARK  113  A    between atoms: _271  and  _273
REMARK  114  A    between atoms: _273  and  _274
REMARK  115  A    between atoms: _273  and  _276
REMARK  116  A    between atoms: _276  and  _277
REMARK  117  A    between atoms: _277  and  _278
REMARK  118  A    between atoms: _278  and  _279
REMARK  119  A    between atoms: _288  and  _290
REMARK  120  A    between atoms: _290  and  _291
REMARK  121  A    between atoms: _290  and  _293
REMARK  122  A    between atoms: _293  and  _294
REMARK  123  A    between atoms: _299  and  _301
REMARK  124  A    between atoms: _301  and  _302
REMARK  125  A    between atoms: _301  and  _304
REMARK  126  A    between atoms: _304  and  _305
REMARK  127  A    between atoms: _311  and  _313
REMARK  128  A    between atoms: _313  and  _314
REMARK  129  A    between atoms: _313  and  _316
REMARK  130  A    between atoms: _316  and  _317
REMARK  131  A    between atoms: _322  and  _324
REMARK  132  A    between atoms: _324  and  _325
REMARK  133  A    between atoms: _324  and  _327
REMARK  134  A    between atoms: _327  and  _328
REMARK  135  A    between atoms: _331  and  _333
REMARK  136  A    between atoms: _333  and  _334
REMARK  137  A    between atoms: _337  and  _339
REMARK  138  A    between atoms: _339  and  _340
REMARK  139  A    between atoms: _343  and  _345
REMARK  140  A    between atoms: _345  and  _346
REMARK  141  A    between atoms: _345  and  _348
REMARK  142  A    between atoms: _348  and  _349
REMARK  143  A    between atoms: _349  and  _350
REMARK  144  A    between atoms: _350  and  _351
REMARK  145  A    between atoms: _360  and  _362
REMARK  146  A    between atoms: _362  and  _363
REMARK  147  A    between atoms: _362  and  _365
REMARK  148  A    between atoms: _365  and  _366
REMARK  149  A    between atoms: _371  and  _373
REMARK  150  A    between atoms: _373  and  _374
REMARK  151  A    between atoms: _373  and  _376
REMARK  152  A    between atoms: _378  and  _380
REMARK  153  A    between atoms: _380  and  _381
REMARK  154  A    between atoms: _380  and  _383
REMARK  155  A    between atoms: _383  and  _384
REMARK  156  A    between atoms: _384  and  _385
REMARK  157  A    between atoms: _387  and  _389
REMARK  158  A    between atoms: _389  and  _390
REMARK  159  A    between atoms: _389  and  _392
REMARK  160  A    between atoms: _392  and  _393
REMARK  161  A    between atoms: _396  and  _398
REMARK  162  A    between atoms: _398  and  _399
REMARK  163  A    between atoms: _398  and  _401
REMARK  164  A    between atoms: _401  and  _402
REMARK  165  A    between atoms: _405  and  _407
REMARK  166  A    between atoms: _407  and  _408
REMARK  167  A    between atoms: _407  and  _410
REMARK  168  A    between atoms: _410  and  _411
REMARK  169  A    between atoms: _411  and  _412
REMARK  170  A    between atoms: _412  and  _413
REMARK  171  A    between atoms: _413  and  _414
REMARK  172  A    between atoms: _418  and  _420
REMARK  173  A    between atoms: _420  and  _421
REMARK  174  A    between atoms: _420  and  _423
REMARK  175  A    between atoms: _426  and  _428
REMARK  176  A    between atoms: _428  and  _429
REMARK  177  A    between atoms: _432  and  _434
REMARK  178  A    between atoms: _434  and  _435
REMARK  179  A    between atoms: _434  and  _437
REMARK  180  A    between atoms: _437  and  _438
REMARK  181  A    between atoms: _441  and  _443
REMARK  182  A    between atoms: _443  and  _444
REMARK  183  A    between atoms: _443  and  _446
REMARK  184  A    between atoms: _446  and  _447
REMARK  185  A    between atoms: _453  and  _455
REMARK  186  A    between atoms: _455  and  _456
REMARK  187  A    between atoms: _455  and  _458
REMARK  188  A    between atoms: _458  and  _459
REMARK  189  A    between atoms: _462  and  _464
REMARK  190  A    between atoms: _464  and  _465
REMARK  191  A    between atoms: _468  and  _470
REMARK  192  A    between atoms: _470  and  _471
REMARK  193  A    between atoms: _470  and  _473
REMARK  194  A    between atoms: _473  and  _474
REMARK  195  A    between atoms: _474  and  _475
REMARK  196  A    between atoms: _475  and  _476
REMARK  197  A    between atoms: _485  and  _487
REMARK  198  A    between atoms: _487  and  _488
REMARK  199  A    between atoms: _487  and  _490
REMARK  200  A    between atoms: _490  and  _491
REMARK  201  A    between atoms: _494  and  _496
REMARK  202  A    between atoms: _496  and  _497
REMARK  203  A    between atoms: _496  and  _499
REMARK  204  A    between atoms: _499  and  _500
REMARK  205  A    between atoms: _500  and  _501
REMARK  206  A    between atoms: _503  and  _505
REMARK  207  A    between atoms: _505  and  _506
REMARK  208  A    between atoms: _505  and  _508
REMARK  209  A    between atoms: _508  and  _509
REMARK  210  A    between atoms: _514  and  _515
REMARK  211  A    between atoms: _517  and  _519
REMARK  212  A    between atoms: _519  and  _520
REMARK  213  A    between atoms: _519  and  _522
REMARK  214  A    between atoms: _522  and  _523
REMARK  215  A    between atoms: _526  and  _528
REMARK  216  A    between atoms: _528  and  _529
REMARK  217  A    between atoms: _528  and  _531
REMARK  218  A    between atoms: _531  and  _532
REMARK  219  A    between atoms: _532  and  _533
REMARK  220  A    between atoms: _533  and  _534
REMARK  221  A    between atoms: _534  and  _535
REMARK  222  A    between atoms: _539  and  _541
REMARK  223  A    between atoms: _541  and  _542
REMARK  224  A    between atoms: _541  and  _544
REMARK  225  A    between atoms: _544  and  _545
REMARK  226  A    between atoms: _550  and  _551
REMARK                            x       y       z     vdW  Elec       q    Type
REMARK                         _______ _______ _______ _____ _____    ______ ____
ROOT
ATOM      1  O   HOH     1      16.684  83.900  -0.507  0.00  0.00    +0.000 OA
ENDROOT
TORSDOF 0
REMARK  Name = ../refined-set-2016/3zc5/3zc5_pocket.pdb
REMARK  226 active torsions:
REMARK  status: ('A' for Active; 'I' for Inactive)
REMARK    1  A    between atoms: _1  and  _3
REMARK    2  A    between atoms: _3  and  _4
REMARK    3  A    between atoms: _3  and  _6
REMARK    4  A    between atoms: _9  and  _11
REMARK    5  A    between atoms: _11  and  _12
REMARK    6  A    between atoms: _11  and  _14
REMARK    7  A    between atoms: _14  and  _15
REMARK    8  A    between atoms: _18  and  _20
REMARK    9  A    between atoms: _20  and  _21
REMARK   10  A    between atoms: _23  and  _25
REMARK   11  A    between atoms: _25  and  _26
REMARK   12  A    between atoms: _25  and  _28
REMARK   13  A    between atoms: _28  and  _29
REMARK   14  A    between atoms: _29  and  _30
REMARK   15  A    between atoms: _30  and  _31
REMARK   16  A    between atoms: _40  and  _42
REMARK   17  A    between atoms: _42  and  _43
REMARK   18  A    between atoms: _45  and  _47
REMARK   19  A    between atoms: _47  and  _48
REMARK   20  A    between atoms: _47  and  _50
REMARK   21  A    between atoms: _52  and  _54
REMARK   22  A    between atoms: _54  and  _55
REMARK   23  A    between atoms: _54  and  _57
REMARK   24  A    between atoms: _60  and  _62
REMARK   25  A    between atoms: _62  and  _63
REMARK   26  A    between atoms: _62  and  _65
REMARK   27  A    between atoms: _65  and  _66
REMARK   28  A    between atoms: _71  and  _72
REMARK   29  A    between atoms: _74  and  _76
REMARK   30  A    between atoms: _76  and  _77
REMARK   31  A    between atoms: _76  and  _79
REMARK   32  A    between atoms: _79  and  _80
REMARK   33  A    between atoms: _85  and  _87
REMARK   34  A    between atoms: _87  and  _88
REMARK   35  A    between atoms: _90  and  _92
REMARK   36  A    between atoms: _92  and  _93
REMARK   37  A    between atoms: _92  and  _95
REMARK   38  A    between atoms: _95  and  _96
REMARK   39  A    between atoms: _101  and  _103
REMARK   40  A    between atoms: _103  and  _104
REMARK   41  A    between atoms: _103  and  _106
REMARK   42  A    between atoms: _108  and  _110
REMARK   43  A    between atoms: _110  and  _111
REMARK   44  A    between atoms: _114  and  _116
REMARK   45  A    between atoms: _116  and  _117
REMARK   46  A    between atoms: _116  and  _119
REMARK   47  A    between atoms: _122  and  _124
REMARK   48  A    between atoms: _124  and  _125
REMARK   49  A    between atoms: _124  and  _127
REMARK   50  A    between atoms: _127  and  _128
REMARK   51  A    between atoms: _128  and  _129
REMARK   52  A    between atoms: _129  and  _130
REMARK   53  A    between atoms: _130  and  _131
REMARK   54  A    between atoms: _135  and  _137
REMARK   55  A    between atoms: _137  and  _138
REMARK   56  A    between atoms: _137  and  _140
REMARK   57  A    between atoms: _140  and  _141
REMARK   58  A    between atoms: _143  and  _145
REMARK   59  A    between atoms: _145  and  _146
REMARK   60  A    between atoms: _145  and  _148
REMARK   61  A    between atoms: _148  and  _149
REMARK   62  A    between atoms: _149  and  _150
REMARK   63  A    between atoms: _152  and  _154
REMARK   64  A    between atoms: _154  and  _155
REMARK   65  A    between atoms: _154  and  _157
REMARK   66  A    between atoms: _157  and  _158
REMARK   67  A    between atoms: _161  and  _163
REMARK   68  A    between atoms: _163  and  _164
REMARK   69  A    between atoms: _163  and  _166
REMARK   70  A    between atoms: _166  and  _167
REMARK   71  A    between atoms: _169  and  _171
REMARK   72  A    between atoms: _171  and  _172
REMARK   73  A    between atoms: _171  and  _174
REMARK   74  A    between atoms: _177  and  _179
REMARK   75  A    between atoms: _179  and  _180
REMARK   76  A    between atoms: _179  and  _182
REMARK   77  A    between atoms: _185  and  _187
REMARK   78  A    between atoms: _187  and  _188
REMARK   79  A    between atoms: _187  and  _190
REMARK   80  A    between atoms: _190  and  _191
REMARK   81  A    between atoms: _195  and  _196
REMARK   82  A    between atoms: _201  and  _203
REMARK   83  A    between atoms: _203  and  _204
REMARK   84  A    between atoms: _203  and  _206
REMARK   85  A    between atoms: _206  and  _207
REMARK   86  A    between atoms: _212  and  _213
REMARK   87  A    between atoms: _215  and  _217
REMARK   88  A    between atoms: _217  and  _218
REMARK   89  A    between atoms: _217  and  _220
REMARK   90  A    between atoms: _220  and  _221
REMARK   91  A    between atoms: _221  and  _222
REMARK   92  A    between atoms: _224  and  _226
REMARK   93  A    between atoms: _226  and  _227
REMARK   94  A    between atoms: _226  and  _229
REMARK   95  A    between atoms: _229  and  _230
REMARK   96  A    between atoms: _230  and  _231
REMARK   97  A    between atoms: _231  and  _232
REMARK   98  A    between atoms: _232  and  _233
REMARK   99  A    between atoms: _237  and  _239
REMARK  100  A    between atoms: _239  and  _240
REMARK  101  A    between atoms: _239  and  _242
REMARK  102  A    between atoms: _242  and  _243
REMARK  103  A    between atoms: _248  and  _250
REMARK  104  A    between atoms: _250  and  _251
REMARK  105  A    between atoms: _253  and  _255
REMARK  106  A    between atoms: _255  and  _256
REMARK  107  A    between atoms: _255  and  _258
REMARK  108  A    between atoms: _258  and  _259
REMARK  109  A    between atoms: _262  and  _264
REMARK  110  A    between atoms: _264  and  _265
REMARK  111  A    between atoms: _264  and  _267
REMARK  112  A    between atoms: _267  and  _268
REMARK  113  A    between atoms: _271  and  _273
REMARK  114  A    between atoms: _273  and  _274
REMARK  115  A    between atoms: _273  and  _276
REMARK  116  A    between atoms: _276  and  _277
REMARK  117  A    between atoms: _277  and  _278
REMARK  118  A    between atoms: _278  and  _279
REMARK  119  A    between atoms: _288  and  _290
REMARK  120  A    between atoms: _290  and  _291
REMARK  121  A    between atoms: _290  and  _293
REMARK  122  A    between atoms: _293  and  _294
REMARK  123  A    between atoms: _299  and  _301
REMARK  124  A    between atoms: _301  and  _302
REMARK  125  A    between atoms: _301  and  _304
REMARK  126  A    between atoms: _304  and  _305
REMARK  127  A    between atoms: _311  and  _313
REMARK  128  A    between atoms: _313  and  _314
REMARK  129  A    between atoms: _313  and  _316
REMARK  130  A    between atoms: _316  and  _317
REMARK  131  A    between atoms: _322  and  _324
REMARK  132  A    between atoms: _324  and  _325
REMARK  133  A    between atoms: _324  and  _327
REMARK  134  A    between atoms: _327  and  _328
REMARK  135  A    between atoms: _331  and  _333
REMARK  136  A    between atoms: _333  and  _334
REMARK  137  A    between atoms: _337  and  _339
REMARK  138  A    between atoms: _339  and  _340
REMARK  139  A    between atoms: _343  and  _345
REMARK  140  A    between atoms: _345  and  _346
REMARK  141  A    between atoms: _345  and  _348
REMARK  142  A    between atoms: _348  and  _349
REMARK  143  A    between atoms: _349  and  _350
REMARK  144  A    between atoms: _350  and  _351
REMARK  145  A    between atoms: _360  and  _362
REMARK  146  A    between atoms: _362  and  _363
REMARK  147  A    between atoms: _362  and  _365
REMARK  148  A    between atoms: _365  and  _366
REMARK  149  A    between atoms: _371  and  _373
REMARK  150  A    between atoms: _373  and  _374
REMARK  151  A    between atoms: _373  and  _376
REMARK  152  A    between atoms: _378  and  _380
REMARK  153  A    between atoms: _380  and  _381
REMARK  154  A    between atoms: _380  and  _383
REMARK  155  A    between atoms: _383  and  _384
REMARK  156  A    between atoms: _384  and  _385
REMARK  157  A    between atoms: _387  and  _389
REMARK  158  A    between atoms: _389  and  _390
REMARK  159  A    between atoms: _389  and  _392
REMARK  160  A    between atoms: _392  and  _393
REMARK  161  A    between atoms: _396  and  _398
REMARK  162  A    between atoms: _398  and  _399
REMARK  163  A    between atoms: _398  and  _401
REMARK  164  A    between atoms: _401  and  _402
REMARK  165  A    between atoms: _405  and  _407
REMARK  166  A    between atoms: _407  and  _408
REMARK  167  A    between atoms: _407  and  _410
REMARK  168  A    between atoms: _410  and  _411
REMARK  169  A    between atoms: _411  and  _412
REMARK  170  A    between atoms: _412  and  _413
REMARK  171  A    between atoms: _413  and  _414
REMARK  172  A    between atoms: _418  and  _420
REMARK  173  A    between atoms: _420  and  _421
REMARK  174  A    between atoms: _420  and  _423
REMARK  175  A    between atoms: _426  and  _428
REMARK  176  A    between atoms: _428  and  _429
REMARK  177  A    between atoms: _432  and  _434
REMARK  178  A    between atoms: _434  and  _435
REMARK  179  A    between atoms: _434  and  _437
REMARK  180  A    between atoms: _437  and  _438
REMARK  181  A    between atoms: _441  and  _443
REMARK  182  A    between atoms: _443  and  _444
REMARK  183  A    between atoms: _443  and  _446
REMARK  184  A    between atoms: _446  and  _447
REMARK  185  A    between atoms: _453  and  _455
REMARK  186  A    between atoms: _455  and  _456
REMARK  187  A    between atoms: _455  and  _458
REMARK  188  A    between atoms: _458  and  _459
REMARK  189  A    between atoms: _462  and  _464
REMARK  190  A    between atoms: _464  and  _465
REMARK  191  A    between atoms: _468  and  _470
REMARK  192  A    between atoms: _470  and  _471
REMARK  193  A    between atoms: _470  and  _473
REMARK  194  A    between atoms: _473  and  _474
REMARK  195  A    between atoms: _474  and  _475
REMARK  196  A    between atoms: _475  and  _476
REMARK  197  A    between atoms: _485  and  _487
REMARK  198  A    between atoms: _487  and  _488
REMARK  199  A    between atoms: _487  and  _490
REMARK  200  A    between atoms: _490  and  _491
REMARK  201  A    between atoms: _494  and  _496
REMARK  202  A    between atoms: _496  and  _497
REMARK  203  A    between atoms: _496  and  _499
REMARK  204  A    between atoms: _499  and  _500
REMARK  205  A    between atoms: _500  and  _501
REMARK  206  A    between atoms: _503  and  _505
REMARK  207  A    between atoms: _505  and  _506
REMARK  208  A    between atoms: _505  and  _508
REMARK  209  A    between atoms: _508  and  _509
REMARK  210  A    between atoms: _514  and  _515
REMARK  211  A    between atoms: _517  and  _519
REMARK  212  A    between atoms: _519  and  _520
REMARK  213  A    between atoms: _519  and  _522
REMARK  214  A    between atoms: _522  and  _523
REMARK  215  A    between atoms: _526  and  _528
REMARK  216  A    between atoms: _528  and  _529
REMARK  217  A    between atoms: _528  and  _531
REMARK  218  A    between atoms: _531  and  _532
REMARK  219  A    between atoms: _532  and  _533
REMARK  220  A    between atoms: _533  and  _534
REMARK  221  A    between atoms: _534  and  _535
REMARK  222  A    between atoms: _539  and  _541
REMARK  223  A    between atoms: _541  and  _542
REMARK  224  A    between atoms: _541  and  _544
REMARK  225  A    between atoms: _544  and  _545
REMARK  226  A    between atoms: _550  and  _551
REMARK                            x       y       z     vdW  Elec       q    Type
REMARK                         _______ _______ _______ _____ _____    ______ ____
ROOT
ATOM      1  O   HOH     1      11.528  84.400  -1.009  0.00  0.00    +0.000 OA
ENDROOT
TORSDOF 0
REMARK  Name = ../refined-set-2016/3zc5/3zc5_pocket.pdb
REMARK  226 active torsions:
REMARK  status: ('A' for Active; 'I' for Inactive)
REMARK    1  A    between atoms: _1  and  _3
REMARK    2  A    between atoms: _3  and  _4
REMARK    3  A    between atoms: _3  and  _6
REMARK    4  A    between atoms: _9  and  _11
REMARK    5  A    between atoms: _11  and  _12
REMARK    6  A    between atoms: _11  and  _14
REMARK    7  A    between atoms: _14  and  _15
REMARK    8  A    between atoms: _18  and  _20
REMARK    9  A    between atoms: _20  and  _21
REMARK   10  A    between atoms: _23  and  _25
REMARK   11  A    between atoms: _25  and  _26
REMARK   12  A    between atoms: _25  and  _28
REMARK   13  A    between atoms: _28  and  _29
REMARK   14  A    between atoms: _29  and  _30
REMARK   15  A    between atoms: _30  and  _31
REMARK   16  A    between atoms: _40  and  _42
REMARK   17  A    between atoms: _42  and  _43
REMARK   18  A    between atoms: _45  and  _47
REMARK   19  A    between atoms: _47  and  _48
REMARK   20  A    between atoms: _47  and  _50
REMARK   21  A    between atoms: _52  and  _54
REMARK   22  A    between atoms: _54  and  _55
REMARK   23  A    between atoms: _54  and  _57
REMARK   24  A    between atoms: _60  and  _62
REMARK   25  A    between atoms: _62  and  _63
REMARK   26  A    between atoms: _62  and  _65
REMARK   27  A    between atoms: _65  and  _66
REMARK   28  A    between atoms: _71  and  _72
REMARK   29  A    between atoms: _74  and  _76
REMARK   30  A    between atoms: _76  and  _77
REMARK   31  A    between atoms: _76  and  _79
REMARK   32  A    between atoms: _79  and  _80
REMARK   33  A    between atoms: _85  and  _87
REMARK   34  A    between atoms: _87  and  _88
REMARK   35  A    between atoms: _90  and  _92
REMARK   36  A    between atoms: _92  and  _93
REMARK   37  A    between atoms: _92  and  _95
REMARK   38  A    between atoms: _95  and  _96
REMARK   39  A    between atoms: _101  and  _103
REMARK   40  A    between atoms: _103  and  _104
REMARK   41  A    between atoms: _103  and  _106
REMARK   42  A    between atoms: _108  and  _110
REMARK   43  A    between atoms: _110  and  _111
REMARK   44  A    between atoms: _114  and  _116
REMARK   45  A    between atoms: _116  and  _117
REMARK   46  A    between atoms: _116  and  _119
REMARK   47  A    between atoms: _122  and  _124
REMARK   48  A    between atoms: _124  and  _125
REMARK   49  A    between atoms: _124  and  _127
REMARK   50  A    between atoms: _127  and  _128
REMARK   51  A    between atoms: _128  and  _129
REMARK   52  A    between atoms: _129  and  _130
REMARK   53  A    between atoms: _130  and  _131
REMARK   54  A    between atoms: _135  and  _137
REMARK   55  A    between atoms: _137  and  _138
REMARK   56  A    between atoms: _137  and  _140
REMARK   57  A    between atoms: _140  and  _141
REMARK   58  A    between atoms: _143  and  _145
REMARK   59  A    between atoms: _145  and  _146
REMARK   60  A    between atoms: _145  and  _148
REMARK   61  A    between atoms: _148  and  _149
REMARK   62  A    between atoms: _149  and  _150
REMARK   63  A    between atoms: _152  and  _154
REMARK   64  A    between atoms: _154  and  _155
REMARK   65  A    between atoms: _154  and  _157
REMARK   66  A    between atoms: _157  and  _158
REMARK   67  A    between atoms: _161  and  _163
REMARK   68  A    between atoms: _163  and  _164
REMARK   69  A    between atoms: _163  and  _166
REMARK   70  A    between atoms: _166  and  _167
REMARK   71  A    between atoms: _169  and  _171
REMARK   72  A    between atoms: _171  and  _172
REMARK   73  A    between atoms: _171  and  _174
REMARK   74  A    between atoms: _177  and  _179
REMARK   75  A    between atoms: _179  and  _180
REMARK   76  A    between atoms: _179  and  _182
REMARK   77  A    between atoms: _185  and  _187
REMARK   78  A    between atoms: _187  and  _188
REMARK   79  A    between atoms: _187  and  _190
REMARK   80  A    between atoms: _190  and  _191
REMARK   81  A    between atoms: _195  and  _196
REMARK   82  A    between atoms: _201  and  _203
REMARK   83  A    between atoms: _203  and  _204
REMARK   84  A    between atoms: _203  and  _206
REMARK   85  A    between atoms: _206  and  _207
REMARK   86  A    between atoms: _212  and  _213
REMARK   87  A    between atoms: _215  and  _217
REMARK   88  A    between atoms: _217  and  _218
REMARK   89  A    between atoms: _217  and  _220
REMARK   90  A    between atoms: _220  and  _221
REMARK   91  A    between atoms: _221  and  _222
REMARK   92  A    between atoms: _224  and  _226
REMARK   93  A    between atoms: _226  and  _227
REMARK   94  A    between atoms: _226  and  _229
REMARK   95  A    between atoms: _229  and  _230
REMARK   96  A    between atoms: _230  and  _231
REMARK   97  A    between atoms: _231  and  _232
REMARK   98  A    between atoms: _232  and  _233
REMARK   99  A    between atoms: _237  and  _239
REMARK  100  A    between atoms: _239  and  _240
REMARK  101  A    between atoms: _239  and  _242
REMARK  102  A    between atoms: _242  and  _243
REMARK  103  A    between atoms: _248  and  _250
REMARK  104  A    between atoms: _250  and  _251
REMARK  105  A    between atoms: _253  and  _255
REMARK  106  A    between atoms: _255  and  _256
REMARK  107  A    between atoms: _255  and  _258
REMARK  108  A    between atoms: _258  and  _259
REMARK  109  A    between atoms: _262  and  _264
REMARK  110  A    between atoms: _264  and  _265
REMARK  111  A    between atoms: _264  and  _267
REMARK  112  A    between atoms: _267  and  _268
REMARK  113  A    between atoms: _271  and  _273
REMARK  114  A    between atoms: _273  and  _274
REMARK  115  A    between atoms: _273  and  _276
REMARK  116  A    between atoms: _276  and  _277
REMARK  117  A    between atoms: _277  and  _278
REMARK  118  A    between atoms: _278  and  _279
REMARK  119  A    between atoms: _288  and  _290
REMARK  120  A    between atoms: _290  and  _291
REMARK  121  A    between atoms: _290  and  _293
REMARK  122  A    between atoms: _293  and  _294
REMARK  123  A    between atoms: _299  and  _301
REMARK  124  A    between atoms: _301  and  _302
REMARK  125  A    between atoms: _301  and  _304
REMARK  126  A    between atoms: _304  and  _305
REMARK  127  A    between atoms: _311  and  _313
REMARK  128  A    between atoms: _313  and  _314
REMARK  129  A    between atoms: _313  and  _316
REMARK  130  A    between atoms: _316  and  _317
REMARK  131  A    between atoms: _322  and  _324
REMARK  132  A    between atoms: _324  and  _325
REMARK  133  A    between atoms: _324  and  _327
REMARK  134  A    between atoms: _327  and  _328
REMARK  135  A    between atoms: _331  and  _333
REMARK  136  A    between atoms: _333  and  _334
REMARK  137  A    between atoms: _337  and  _339
REMARK  138  A    between atoms: _339  and  _340
REMARK  139  A    between atoms: _343  and  _345
REMARK  140  A    between atoms: _345  and  _346
REMARK  141  A    between atoms: _345  and  _348
REMARK  142  A    between atoms: _348  and  _349
REMARK  143  A    between atoms: _349  and  _350
REMARK  144  A    between atoms: _350  and  _351
REMARK  145  A    between atoms: _360  and  _362
REMARK  146  A    between atoms: _362  and  _363
REMARK  147  A    between atoms: _362  and  _365
REMARK  148  A    between atoms: _365  and  _366
REMARK  149  A    between atoms: _371  and  _373
REMARK  150  A    between atoms: _373  and  _374
REMARK  151  A    between atoms: _373  and  _376
REMARK  152  A    between atoms: _378  and  _380
REMARK  153  A    between atoms: _380  and  _381
REMARK  154  A    between atoms: _380  and  _383
REMARK  155  A    between atoms: _383  and  _384
REMARK  156  A    between atoms: _384  and  _385
REMARK  157  A    between atoms: _387  and  _389
REMARK  158  A    between atoms: _389  and  _390
REMARK  159  A    between atoms: _389  and  _392
REMARK  160  A    between atoms: _392  and  _393
REMARK  161  A    between atoms: _396  and  _398
REMARK  162  A    between atoms: _398  and  _399
REMARK  163  A    between atoms: _398  and  _401
REMARK  164  A    between atoms: _401  and  _402
REMARK  165  A    between atoms: _405  and  _407
REMARK  166  A    between atoms: _407  and  _408
REMARK  167  A    between atoms: _407  and  _410
REMARK  168  A    between atoms: _410  and  _411
REMARK  169  A    between atoms: _411  and  _412
REMARK  170  A    between atoms: _412  and  _413
REMARK  171  A    between atoms: _413  and  _414
REMARK  172  A    between atoms: _418  and  _420
REMARK  173  A    between atoms: _420  and  _421
REMARK  174  A    between atoms: _420  and  _423
REMARK  175  A    between atoms: _426  and  _428
REMARK  176  A    between atoms: _428  and  _429
REMARK  177  A    between atoms: _432  and  _434
REMARK  178  A    between atoms: _434  and  _435
REMARK  179  A    between atoms: _434  and  _437
REMARK  180  A    between atoms: _437  and  _438
REMARK  181  A    between atoms: _441  and  _443
REMARK  182  A    between atoms: _443  and  _444
REMARK  183  A    between atoms: _443  and  _446
REMARK  184  A    between atoms: _446  and  _447
REMARK  185  A    between atoms: _453  and  _455
REMARK  186  A    between atoms: _455  and  _456
REMARK  187  A    between atoms: _455  and  _458
REMARK  188  A    between atoms: _458  and  _459
REMARK  189  A    between atoms: _462  and  _464
REMARK  190  A    between atoms: _464  and  _465
REMARK  191  A    between atoms: _468  and  _470
REMARK  192  A    between atoms: _470  and  _471
REMARK  193  A    between atoms: _470  and  _473
REMARK  194  A    between atoms: _473  and  _474
REMARK  195  A    between atoms: _474  and  _475
REMARK  196  A    between atoms: _475  and  _476
REMARK  197  A    between atoms: _485  and  _487
REMARK  198  A    between atoms: _487  and  _488
REMARK  199  A    between atoms: _487  and  _490
REMARK  200  A    between atoms: _490  and  _491
REMARK  201  A    between atoms: _494  and  _496
REMARK  202  A    between atoms: _496  and  _497
REMARK  203  A    between atoms: _496  and  _499
REMARK  204  A    between atoms: _499  and  _500
REMARK  205  A    between atoms: _500  and  _501
REMARK  206  A    between atoms: _503  and  _505
REMARK  207  A    between atoms: _505  and  _506
REMARK  208  A    between atoms: _505  and  _508
REMARK  209  A    between atoms: _508  and  _509
REMARK  210  A    between atoms: _514  and  _515
REMARK  211  A    between atoms: _517  and  _519
REMARK  212  A    between atoms: _519  and  _520
REMARK  213  A    between atoms: _519  and  _522
REMARK  214  A    between atoms: _522  and  _523
REMARK  215  A    between atoms: _526  and  _528
REMARK  216  A    between atoms: _528  and  _529
REMARK  217  A    between atoms: _528  and  _531
REMARK  218  A    between atoms: _531  and  _532
REMARK  219  A    between atoms: _532  and  _533
REMARK  220  A    between atoms: _533  and  _534
REMARK  221  A    between atoms: _534  and  _535
REMARK  222  A    between atoms: _539  and  _541
REMARK  223  A    between atoms: _541  and  _542
REMARK  224  A    between atoms: _541  and  _544
REMARK  225  A    between atoms: _544  and  _545
REMARK  226  A    between atoms: _550  and  _551
REMARK                            x       y       z     vdW  Elec       q    Type
REMARK                         _______ _______ _______ _____ _____    ______ ____
ROOT
ATOM      1  O   HOH     1      28.474  90.257   1.385  0.00  0.00    +0.000 OA
ENDROOT
TORSDOF 0
REMARK  Name = ../refined-set-2016/3zc5/3zc5_pocket.pdb
REMARK  226 active torsions:
REMARK  status: ('A' for Active; 'I' for Inactive)
REMARK    1  A    between atoms: _1  and  _3
REMARK    2  A    between atoms: _3  and  _4
REMARK    3  A    between atoms: _3  and  _6
REMARK    4  A    between atoms: _9  and  _11
REMARK    5  A    between atoms: _11  and  _12
REMARK    6  A    between atoms: _11  and  _14
REMARK    7  A    between atoms: _14  and  _15
REMARK    8  A    between atoms: _18  and  _20
REMARK    9  A    between atoms: _20  and  _21
REMARK   10  A    between atoms: _23  and  _25
REMARK   11  A    between atoms: _25  and  _26
REMARK   12  A    between atoms: _25  and  _28
REMARK   13  A    between atoms: _28  and  _29
REMARK   14  A    between atoms: _29  and  _30
REMARK   15  A    between atoms: _30  and  _31
REMARK   16  A    between atoms: _40  and  _42
REMARK   17  A    between atoms: _42  and  _43
REMARK   18  A    between atoms: _45  and  _47
REMARK   19  A    between atoms: _47  and  _48
REMARK   20  A    between atoms: _47  and  _50
REMARK   21  A    between atoms: _52  and  _54
REMARK   22  A    between atoms: _54  and  _55
REMARK   23  A    between atoms: _54  and  _57
REMARK   24  A    between atoms: _60  and  _62
REMARK   25  A    between atoms: _62  and  _63
REMARK   26  A    between atoms: _62  and  _65
REMARK   27  A    between atoms: _65  and  _66
REMARK   28  A    between atoms: _71  and  _72
REMARK   29  A    between atoms: _74  and  _76
REMARK   30  A    between atoms: _76  and  _77
REMARK   31  A    between atoms: _76  and  _79
REMARK   32  A    between atoms: _79  and  _80
REMARK   33  A    between atoms: _85  and  _87
REMARK   34  A    between atoms: _87  and  _88
REMARK   35  A    between atoms: _90  and  _92
REMARK   36  A    between atoms: _92  and  _93
REMARK   37  A    between atoms: _92  and  _95
REMARK   38  A    between atoms: _95  and  _96
REMARK   39  A    between atoms: _101  and  _103
REMARK   40  A    between atoms: _103  and  _104
REMARK   41  A    between atoms: _103  and  _106
REMARK   42  A    between atoms: _108  and  _110
REMARK   43  A    between atoms: _110  and  _111
REMARK   44  A    between atoms: _114  and  _116
REMARK   45  A    between atoms: _116  and  _117
REMARK   46  A    between atoms: _116  and  _119
REMARK   47  A    between atoms: _122  and  _124
REMARK   48  A    between atoms: _124  and  _125
REMARK   49  A    between atoms: _124  and  _127
REMARK   50  A    between atoms: _127  and  _128
REMARK   51  A    between atoms: _128  and  _129
REMARK   52  A    between atoms: _129  and  _130
REMARK   53  A    between atoms: _130  and  _131
REMARK   54  A    between atoms: _135  and  _137
REMARK   55  A    between atoms: _137  and  _138
REMARK   56  A    between atoms: _137  and  _140
REMARK   57  A    between atoms: _140  and  _141
REMARK   58  A    between atoms: _143  and  _145
REMARK   59  A    between atoms: _145  and  _146
REMARK   60  A    between atoms: _145  and  _148
REMARK   61  A    between atoms: _148  and  _149
REMARK   62  A    between atoms: _149  and  _150
REMARK   63  A    between atoms: _152  and  _154
REMARK   64  A    between atoms: _154  and  _155
REMARK   65  A    between atoms: _154  and  _157
REMARK   66  A    between atoms: _157  and  _158
REMARK   67  A    between atoms: _161  and  _163
REMARK   68  A    between atoms: _163  and  _164
REMARK   69  A    between atoms: _163  and  _166
REMARK   70  A    between atoms: _166  and  _167
REMARK   71  A    between atoms: _169  and  _171
REMARK   72  A    between atoms: _171  and  _172
REMARK   73  A    between atoms: _171  and  _174
REMARK   74  A    between atoms: _177  and  _179
REMARK   75  A    between atoms: _179  and  _180
REMARK   76  A    between atoms: _179  and  _182
REMARK   77  A    between atoms: _185  and  _187
REMARK   78  A    between atoms: _187  and  _188
REMARK   79  A    between atoms: _187  and  _190
REMARK   80  A    between atoms: _190  and  _191
REMARK   81  A    between atoms: _195  and  _196
REMARK   82  A    between atoms: _201  and  _203
REMARK   83  A    between atoms: _203  and  _204
REMARK   84  A    between atoms: _203  and  _206
REMARK   85  A    between atoms: _206  and  _207
REMARK   86  A    between atoms: _212  and  _213
REMARK   87  A    between atoms: _215  and  _217
REMARK   88  A    between atoms: _217  and  _218
REMARK   89  A    between atoms: _217  and  _220
REMARK   90  A    between atoms: _220  and  _221
REMARK   91  A    between atoms: _221  and  _222
REMARK   92  A    between atoms: _224  and  _226
REMARK   93  A    between atoms: _226  and  _227
REMARK   94  A    between atoms: _226  and  _229
REMARK   95  A    between atoms: _229  and  _230
REMARK   96  A    between atoms: _230  and  _231
REMARK   97  A    between atoms: _231  and  _232
REMARK   98  A    between atoms: _232  and  _233
REMARK   99  A    between atoms: _237  and  _239
REMARK  100  A    between atoms: _239  and  _240
REMARK  101  A    between atoms: _239  and  _242
REMARK  102  A    between atoms: _242  and  _243
REMARK  103  A    between atoms: _248  and  _250
REMARK  104  A    between atoms: _250  and  _251
REMARK  105  A    between atoms: _253  and  _255
REMARK  106  A    between atoms: _255  and  _256
REMARK  107  A    between atoms: _255  and  _258
REMARK  108  A    between atoms: _258  and  _259
REMARK  109  A    between atoms: _262  and  _264
REMARK  110  A    between atoms: _264  and  _265
REMARK  111  A    between atoms: _264  and  _267
REMARK  112  A    between atoms: _267  and  _268
REMARK  113  A    between atoms: _271  and  _273
REMARK  114  A    between atoms: _273  and  _274
REMARK  115  A    between atoms: _273  and  _276
REMARK  116  A    between atoms: _276  and  _277
REMARK  117  A    between atoms: _277  and  _278
REMARK  118  A    between atoms: _278  and  _279
REMARK  119  A    between atoms: _288  and  _290
REMARK  120  A    between atoms: _290  and  _291
REMARK  121  A    between atoms: _290  and  _293
REMARK  122  A    between atoms: _293  and  _294
REMARK  123  A    between atoms: _299  and  _301
REMARK  124  A    between atoms: _301  and  _302
REMARK  125  A    between atoms: _301  and  _304
REMARK  126  A    between atoms: _304  and  _305
REMARK  127  A    between atoms: _311  and  _313
REMARK  128  A    between atoms: _313  and  _314
REMARK  129  A    between atoms: _313  and  _316
REMARK  130  A    between atoms: _316  and  _317
REMARK  131  A    between atoms: _322  and  _324
REMARK  132  A    between atoms: _324  and  _325
REMARK  133  A    between atoms: _324  and  _327
REMARK  134  A    between atoms: _327  and  _328
REMARK  135  A    between atoms: _331  and  _333
REMARK  136  A    between atoms: _333  and  _334
REMARK  137  A    between atoms: _337  and  _339
REMARK  138  A    between atoms: _339  and  _340
REMARK  139  A    between atoms: _343  and  _345
REMARK  140  A    between atoms: _345  and  _346
REMARK  141  A    between atoms: _345  and  _348
REMARK  142  A    between atoms: _348  and  _349
REMARK  143  A    between atoms: _349  and  _350
REMARK  144  A    between atoms: _350  and  _351
REMARK  145  A    between atoms: _360  and  _362
REMARK  146  A    between atoms: _362  and  _363
REMARK  147  A    between atoms: _362  and  _365
REMARK  148  A    between atoms: _365  and  _366
REMARK  149  A    between atoms: _371  and  _373
REMARK  150  A    between atoms: _373  and  _374
REMARK  151  A    between atoms: _373  and  _376
REMARK  152  A    between atoms: _378  and  _380
REMARK  153  A    between atoms: _380  and  _381
REMARK  154  A    between atoms: _380  and  _383
REMARK  155  A    between atoms: _383  and  _384
REMARK  156  A    between atoms: _384  and  _385
REMARK  157  A    between atoms: _387  and  _389
REMARK  158  A    between atoms: _389  and  _390
REMARK  159  A    between atoms: _389  and  _392
REMARK  160  A    between atoms: _392  and  _393
REMARK  161  A    between atoms: _396  and  _398
REMARK  162  A    between atoms: _398  and  _399
REMARK  163  A    between atoms: _398  and  _401
REMARK  164  A    between atoms: _401  and  _402
REMARK  165  A    between atoms: _405  and  _407
REMARK  166  A    between atoms: _407  and  _408
REMARK  167  A    between atoms: _407  and  _410
REMARK  168  A    between atoms: _410  and  _411
REMARK  169  A    between atoms: _411  and  _412
REMARK  170  A    between atoms: _412  and  _413
REMARK  171  A    between atoms: _413  and  _414
REMARK  172  A    between atoms: _418  and  _420
REMARK  173  A    between atoms: _420  and  _421
REMARK  174  A    between atoms: _420  and  _423
REMARK  175  A    between atoms: _426  and  _428
REMARK  176  A    between atoms: _428  and  _429
REMARK  177  A    between atoms: _432  and  _434
REMARK  178  A    between atoms: _434  and  _435
REMARK  179  A    between atoms: _434  and  _437
REMARK  180  A    between atoms: _437  and  _438
REMARK  181  A    between atoms: _441  and  _443
REMARK  182  A    between atoms: _443  and  _444
REMARK  183  A    between atoms: _443  and  _446
REMARK  184  A    between atoms: _446  and  _447
REMARK  185  A    between atoms: _453  and  _455
REMARK  186  A    between atoms: _455  and  _456
REMARK  187  A    between atoms: _455  and  _458
REMARK  188  A    between atoms: _458  and  _459
REMARK  189  A    between atoms: _462  and  _464
REMARK  190  A    between atoms: _464  and  _465
REMARK  191  A    between atoms: _468  and  _470
REMARK  192  A    between atoms: _470  and  _471
REMARK  193  A    between atoms: _470  and  _473
REMARK  194  A    between atoms: _473  and  _474
REMARK  195  A    between atoms: _474  and  _475
REMARK  196  A    between atoms: _475  and  _476
REMARK  197  A    between atoms: _485  and  _487
REMARK  198  A    between atoms: _487  and  _488
REMARK  199  A    between atoms: _487  and  _490
REMARK  200  A    between atoms: _490  and  _491
REMARK  201  A    between atoms: _494  and  _496
REMARK  202  A    between atoms: _496  and  _497
REMARK  203  A    between atoms: _496  and  _499
REMARK  204  A    between atoms: _499  and  _500
REMARK  205  A    between atoms: _500  and  _501
REMARK  206  A    between atoms: _503  and  _505
REMARK  207  A    between atoms: _505  and  _506
REMARK  208  A    between atoms: _505  and  _508
REMARK  209  A    between atoms: _508  and  _509
REMARK  210  A    between atoms: _514  and  _515
REMARK  211  A    between atoms: _517  and  _519
REMARK  212  A    between atoms: _519  and  _520
REMARK  213  A    between atoms: _519  and  _522
REMARK  214  A    between atoms: _522  and  _523
REMARK  215  A    between atoms: _526  and  _528
REMARK  216  A    between atoms: _528  and  _529
REMARK  217  A    between atoms: _528  and  _531
REMARK  218  A    between atoms: _531  and  _532
REMARK  219  A    between atoms: _532  and  _533
REMARK  220  A    between atoms: _533  and  _534
REMARK  221  A    between atoms: _534  and  _535
REMARK  222  A    between atoms: _539  and  _541
REMARK  223  A    between atoms: _541  and  _542
REMARK  224  A    between atoms: _541  and  _544
REMARK  225  A    between atoms: _544  and  _545
REMARK  226  A    between atoms: _550  and  _551
REMARK                            x       y       z     vdW  Elec       q    Type
REMARK                         _______ _______ _______ _____ _____    ______ ____
ROOT
ATOM      1  O   HOH     1      13.338  89.155   8.781  0.00  0.00    +0.000 OA
ENDROOT
TORSDOF 0
REMARK  Name = ../refined-set-2016/3zc5/3zc5_pocket.pdb
REMARK  226 active torsions:
REMARK  status: ('A' for Active; 'I' for Inactive)
REMARK    1  A    between atoms: _1  and  _3
REMARK    2  A    between atoms: _3  and  _4
REMARK    3  A    between atoms: _3  and  _6
REMARK    4  A    between atoms: _9  and  _11
REMARK    5  A    between atoms: _11  and  _12
REMARK    6  A    between atoms: _11  and  _14
REMARK    7  A    between atoms: _14  and  _15
REMARK    8  A    between atoms: _18  and  _20
REMARK    9  A    between atoms: _20  and  _21
REMARK   10  A    between atoms: _23  and  _25
REMARK   11  A    between atoms: _25  and  _26
REMARK   12  A    between atoms: _25  and  _28
REMARK   13  A    between atoms: _28  and  _29
REMARK   14  A    between atoms: _29  and  _30
REMARK   15  A    between atoms: _30  and  _31
REMARK   16  A    between atoms: _40  and  _42
REMARK   17  A    between atoms: _42  and  _43
REMARK   18  A    between atoms: _45  and  _47
REMARK   19  A    between atoms: _47  and  _48
REMARK   20  A    between atoms: _47  and  _50
REMARK   21  A    between atoms: _52  and  _54
REMARK   22  A    between atoms: _54  and  _55
REMARK   23  A    between atoms: _54  and  _57
REMARK   24  A    between atoms: _60  and  _62
REMARK   25  A    between atoms: _62  and  _63
REMARK   26  A    between atoms: _62  and  _65
REMARK   27  A    between atoms: _65  and  _66
REMARK   28  A    between atoms: _71  and  _72
REMARK   29  A    between atoms: _74  and  _76
REMARK   30  A    between atoms: _76  and  _77
REMARK   31  A    between atoms: _76  and  _79
REMARK   32  A    between atoms: _79  and  _80
REMARK   33  A    between atoms: _85  and  _87
REMARK   34  A    between atoms: _87  and  _88
REMARK   35  A    between atoms: _90  and  _92
REMARK   36  A    between atoms: _92  and  _93
REMARK   37  A    between atoms: _92  and  _95
REMARK   38  A    between atoms: _95  and  _96
REMARK   39  A    between atoms: _101  and  _103
REMARK   40  A    between atoms: _103  and  _104
REMARK   41  A    between atoms: _103  and  _106
REMARK   42  A    between atoms: _108  and  _110
REMARK   43  A    between atoms: _110  and  _111
REMARK   44  A    between atoms: _114  and  _116
REMARK   45  A    between atoms: _116  and  _117
REMARK   46  A    between atoms: _116  and  _119
REMARK   47  A    between atoms: _122  and  _124
REMARK   48  A    between atoms: _124  and  _125
REMARK   49  A    between atoms: _124  and  _127
REMARK   50  A    between atoms: _127  and  _128
REMARK   51  A    between atoms: _128  and  _129
REMARK   52  A    between atoms: _129  and  _130
REMARK   53  A    between atoms: _130  and  _131
REMARK   54  A    between atoms: _135  and  _137
REMARK   55  A    between atoms: _137  and  _138
REMARK   56  A    between atoms: _137  and  _140
REMARK   57  A    between atoms: _140  and  _141
REMARK   58  A    between atoms: _143  and  _145
REMARK   59  A    between atoms: _145  and  _146
REMARK   60  A    between atoms: _145  and  _148
REMARK   61  A    between atoms: _148  and  _149
REMARK   62  A    between atoms: _149  and  _150
REMARK   63  A    between atoms: _152  and  _154
REMARK   64  A    between atoms: _154  and  _155
REMARK   65  A    between atoms: _154  and  _157
REMARK   66  A    between atoms: _157  and  _158
REMARK   67  A    between atoms: _161  and  _163
REMARK   68  A    between atoms: _163  and  _164
REMARK   69  A    between atoms: _163  and  _166
REMARK   70  A    between atoms: _166  and  _167
REMARK   71  A    between atoms: _169  and  _171
REMARK   72  A    between atoms: _171  and  _172
REMARK   73  A    between atoms: _171  and  _174
REMARK   74  A    between atoms: _177  and  _179
REMARK   75  A    between atoms: _179  and  _180
REMARK   76  A    between atoms: _179  and  _182
REMARK   77  A    between atoms: _185  and  _187
REMARK   78  A    between atoms: _187  and  _188
REMARK   79  A    between atoms: _187  and  _190
REMARK   80  A    between atoms: _190  and  _191
REMARK   81  A    between atoms: _195  and  _196
REMARK   82  A    between atoms: _201  and  _203
REMARK   83  A    between atoms: _203  and  _204
REMARK   84  A    between atoms: _203  and  _206
REMARK   85  A    between atoms: _206  and  _207
REMARK   86  A    between atoms: _212  and  _213
REMARK   87  A    between atoms: _215  and  _217
REMARK   88  A    between atoms: _217  and  _218
REMARK   89  A    between atoms: _217  and  _220
REMARK   90  A    between atoms: _220  and  _221
REMARK   91  A    between atoms: _221  and  _222
REMARK   92  A    between atoms: _224  and  _226
REMARK   93  A    between atoms: _226  and  _227
REMARK   94  A    between atoms: _226  and  _229
REMARK   95  A    between atoms: _229  and  _230
REMARK   96  A    between atoms: _230  and  _231
REMARK   97  A    between atoms: _231  and  _232
REMARK   98  A    between atoms: _232  and  _233
REMARK   99  A    between atoms: _237  and  _239
REMARK  100  A    between atoms: _239  and  _240
REMARK  101  A    between atoms: _239  and  _242
REMARK  102  A    between atoms: _242  and  _243
REMARK  103  A    between atoms: _248  and  _250
REMARK  104  A    between atoms: _250  and  _251
REMARK  105  A    between atoms: _253  and  _255
REMARK  106  A    between atoms: _255  and  _256
REMARK  107  A    between atoms: _255  and  _258
REMARK  108  A    between atoms: _258  and  _259
REMARK  109  A    between atoms: _262  and  _264
REMARK  110  A    between atoms: _264  and  _265
REMARK  111  A    between atoms: _264  and  _267
REMARK  112  A    between atoms: _267  and  _268
REMARK  113  A    between atoms: _271  and  _273
REMARK  114  A    between atoms: _273  and  _274
REMARK  115  A    between atoms: _273  and  _276
REMARK  116  A    between atoms: _276  and  _277
REMARK  117  A    between atoms: _277  and  _278
REMARK  118  A    between atoms: _278  and  _279
REMARK  119  A    between atoms: _288  and  _290
REMARK  120  A    between atoms: _290  and  _291
REMARK  121  A    between atoms: _290  and  _293
REMARK  122  A    between atoms: _293  and  _294
REMARK  123  A    between atoms: _299  and  _301
REMARK  124  A    between atoms: _301  and  _302
REMARK  125  A    between atoms: _301  and  _304
REMARK  126  A    between atoms: _304  and  _305
REMARK  127  A    between atoms: _311  and  _313
REMARK  128  A    between atoms: _313  and  _314
REMARK  129  A    between atoms: _313  and  _316
REMARK  130  A    between atoms: _316  and  _317
REMARK  131  A    between atoms: _322  and  _324
REMARK  132  A    between atoms: _324  and  _325
REMARK  133  A    between atoms: _324  and  _327
REMARK  134  A    between atoms: _327  and  _328
REMARK  135  A    between atoms: _331  and  _333
REMARK  136  A    between atoms: _333  and  _334
REMARK  137  A    between atoms: _337  and  _339
REMARK  138  A    between atoms: _339  and  _340
REMARK  139  A    between atoms: _343  and  _345
REMARK  140  A    between atoms: _345  and  _346
REMARK  141  A    between atoms: _345  and  _348
REMARK  142  A    between atoms: _348  and  _349
REMARK  143  A    between atoms: _349  and  _350
REMARK  144  A    between atoms: _350  and  _351
REMARK  145  A    between atoms: _360  and  _362
REMARK  146  A    between atoms: _362  and  _363
REMARK  147  A    between atoms: _362  and  _365
REMARK  148  A    between atoms: _365  and  _366
REMARK  149  A    between atoms: _371  and  _373
REMARK  150  A    between atoms: _373  and  _374
REMARK  151  A    between atoms: _373  and  _376
REMARK  152  A    between atoms: _378  and  _380
REMARK  153  A    between atoms: _380  and  _381
REMARK  154  A    between atoms: _380  and  _383
REMARK  155  A    between atoms: _383  and  _384
REMARK  156  A    between atoms: _384  and  _385
REMARK  157  A    between atoms: _387  and  _389
REMARK  158  A    between atoms: _389  and  _390
REMARK  159  A    between atoms: _389  and  _392
REMARK  160  A    between atoms: _392  and  _393
REMARK  161  A    between atoms: _396  and  _398
REMARK  162  A    between atoms: _398  and  _399
REMARK  163  A    between atoms: _398  and  _401
REMARK  164  A    between atoms: _401  and  _402
REMARK  165  A    between atoms: _405  and  _407
REMARK  166  A    between atoms: _407  and  _408
REMARK  167  A    between atoms: _407  and  _410
REMARK  168  A    between atoms: _410  and  _411
REMARK  169  A    between atoms: _411  and  _412
REMARK  170  A    between atoms: _412  and  _413
REMARK  171  A    between atoms: _413  and  _414
REMARK  172  A    between atoms: _418  and  _420
REMARK  173  A    between atoms: _420  and  _421
REMARK  174  A    between atoms: _420  and  _423
REMARK  175  A    between atoms: _426  and  _428
REMARK  176  A    between atoms: _428  and  _429
REMARK  177  A    between atoms: _432  and  _434
REMARK  178  A    between atoms: _434  and  _435
REMARK  179  A    between atoms: _434  and  _437
REMARK  180  A    between atoms: _437  and  _438
REMARK  181  A    between atoms: _441  and  _443
REMARK  182  A    between atoms: _443  and  _444
REMARK  183  A    between atoms: _443  and  _446
REMARK  184  A    between atoms: _446  and  _447
REMARK  185  A    between atoms: _453  and  _455
REMARK  186  A    between atoms: _455  and  _456
REMARK  187  A    between atoms: _455  and  _458
REMARK  188  A    between atoms: _458  and  _459
REMARK  189  A    between atoms: _462  and  _464
REMARK  190  A    between atoms: _464  and  _465
REMARK  191  A    between atoms: _468  and  _470
REMARK  192  A    between atoms: _470  and  _471
REMARK  193  A    between atoms: _470  and  _473
REMARK  194  A    between atoms: _473  and  _474
REMARK  195  A    between atoms: _474  and  _475
REMARK  196  A    between atoms: _475  and  _476
REMARK  197  A    between atoms: _485  and  _487
REMARK  198  A    between atoms: _487  and  _488
REMARK  199  A    between atoms: _487  and  _490
REMARK  200  A    between atoms: _490  and  _491
REMARK  201  A    between atoms: _494  and  _496
REMARK  202  A    between atoms: _496  and  _497
REMARK  203  A    between atoms: _496  and  _499
REMARK  204  A    between atoms: _499  and  _500
REMARK  205  A    between atoms: _500  and  _501
REMARK  206  A    between atoms: _503  and  _505
REMARK  207  A    between atoms: _505  and  _506
REMARK  208  A    between atoms: _505  and  _508
REMARK  209  A    between atoms: _508  and  _509
REMARK  210  A    between atoms: _514  and  _515
REMARK  211  A    between atoms: _517  and  _519
REMARK  212  A    between atoms: _519  and  _520
REMARK  213  A    between atoms: _519  and  _522
REMARK  214  A    between atoms: _522  and  _523
REMARK  215  A    between atoms: _526  and  _528
REMARK  216  A    between atoms: _528  and  _529
REMARK  217  A    between atoms: _528  and  _531
REMARK  218  A    between atoms: _531  and  _532
REMARK  219  A    between atoms: _532  and  _533
REMARK  220  A    between atoms: _533  and  _534
REMARK  221  A    between atoms: _534  and  _535
REMARK  222  A    between atoms: _539  and  _541
REMARK  223  A    between atoms: _541  and  _542
REMARK  224  A    between atoms: _541  and  _544
REMARK  225  A    between atoms: _544  and  _545
REMARK  226  A    between atoms: _550  and  _551
REMARK                            x       y       z     vdW  Elec       q    Type
REMARK                         _______ _______ _______ _____ _____    ______ ____
ROOT
ATOM      1  O   HOH     1      30.937  83.900   7.634  0.00  0.00    +0.000 OA
ENDROOT
TORSDOF 0
REMARK  Name = ../refined-set-2016/3zc5/3zc5_pocket.pdb
REMARK  226 active torsions:
REMARK  status: ('A' for Active; 'I' for Inactive)
REMARK    1  A    between atoms: _1  and  _3
REMARK    2  A    between atoms: _3  and  _4
REMARK    3  A    between atoms: _3  and  _6
REMARK    4  A    between atoms: _9  and  _11
REMARK    5  A    between atoms: _11  and  _12
REMARK    6  A    between atoms: _11  and  _14
REMARK    7  A    between atoms: _14  and  _15
REMARK    8  A    between atoms: _18  and  _20
REMARK    9  A    between atoms: _20  and  _21
REMARK   10  A    between atoms: _23  and  _25
REMARK   11  A    between atoms: _25  and  _26
REMARK   12  A    between atoms: _25  and  _28
REMARK   13  A    between atoms: _28  and  _29
REMARK   14  A    between atoms: _29  and  _30
REMARK   15  A    between atoms: _30  and  _31
REMARK   16  A    between atoms: _40  and  _42
REMARK   17  A    between atoms: _42  and  _43
REMARK   18  A    between atoms: _45  and  _47
REMARK   19  A    between atoms: _47  and  _48
REMARK   20  A    between atoms: _47  and  _50
REMARK   21  A    between atoms: _52  and  _54
REMARK   22  A    between atoms: _54  and  _55
REMARK   23  A    between atoms: _54  and  _57
REMARK   24  A    between atoms: _60  and  _62
REMARK   25  A    between atoms: _62  and  _63
REMARK   26  A    between atoms: _62  and  _65
REMARK   27  A    between atoms: _65  and  _66
REMARK   28  A    between atoms: _71  and  _72
REMARK   29  A    between atoms: _74  and  _76
REMARK   30  A    between atoms: _76  and  _77
REMARK   31  A    between atoms: _76  and  _79
REMARK   32  A    between atoms: _79  and  _80
REMARK   33  A    between atoms: _85  and  _87
REMARK   34  A    between atoms: _87  and  _88
REMARK   35  A    between atoms: _90  and  _92
REMARK   36  A    between atoms: _92  and  _93
REMARK   37  A    between atoms: _92  and  _95
REMARK   38  A    between atoms: _95  and  _96
REMARK   39  A    between atoms: _101  and  _103
REMARK   40  A    between atoms: _103  and  _104
REMARK   41  A    between atoms: _103  and  _106
REMARK   42  A    between atoms: _108  and  _110
REMARK   43  A    between atoms: _110  and  _111
REMARK   44  A    between atoms: _114  and  _116
REMARK   45  A    between atoms: _116  and  _117
REMARK   46  A    between atoms: _116  and  _119
REMARK   47  A    between atoms: _122  and  _124
REMARK   48  A    between atoms: _124  and  _125
REMARK   49  A    between atoms: _124  and  _127
REMARK   50  A    between atoms: _127  and  _128
REMARK   51  A    between atoms: _128  and  _129
REMARK   52  A    between atoms: _129  and  _130
REMARK   53  A    between atoms: _130  and  _131
REMARK   54  A    between atoms: _135  and  _137
REMARK   55  A    between atoms: _137  and  _138
REMARK   56  A    between atoms: _137  and  _140
REMARK   57  A    between atoms: _140  and  _141
REMARK   58  A    between atoms: _143  and  _145
REMARK   59  A    between atoms: _145  and  _146
REMARK   60  A    between atoms: _145  and  _148
REMARK   61  A    between atoms: _148  and  _149
REMARK   62  A    between atoms: _149  and  _150
REMARK   63  A    between atoms: _152  and  _154
REMARK   64  A    between atoms: _154  and  _155
REMARK   65  A    between atoms: _154  and  _157
REMARK   66  A    between atoms: _157  and  _158
REMARK   67  A    between atoms: _161  and  _163
REMARK   68  A    between atoms: _163  and  _164
REMARK   69  A    between atoms: _163  and  _166
REMARK   70  A    between atoms: _166  and  _167
REMARK   71  A    between atoms: _169  and  _171
REMARK   72  A    between atoms: _171  and  _172
REMARK   73  A    between atoms: _171  and  _174
REMARK   74  A    between atoms: _177  and  _179
REMARK   75  A    between atoms: _179  and  _180
REMARK   76  A    between atoms: _179  and  _182
REMARK   77  A    between atoms: _185  and  _187
REMARK   78  A    between atoms: _187  and  _188
REMARK   79  A    between atoms: _187  and  _190
REMARK   80  A    between atoms: _190  and  _191
REMARK   81  A    between atoms: _195  and  _196
REMARK   82  A    between atoms: _201  and  _203
REMARK   83  A    between atoms: _203  and  _204
REMARK   84  A    between atoms: _203  and  _206
REMARK   85  A    between atoms: _206  and  _207
REMARK   86  A    between atoms: _212  and  _213
REMARK   87  A    between atoms: _215  and  _217
REMARK   88  A    between atoms: _217  and  _218
REMARK   89  A    between atoms: _217  and  _220
REMARK   90  A    between atoms: _220  and  _221
REMARK   91  A    between atoms: _221  and  _222
REMARK   92  A    between atoms: _224  and  _226
REMARK   93  A    between atoms: _226  and  _227
REMARK   94  A    between atoms: _226  and  _229
REMARK   95  A    between atoms: _229  and  _230
REMARK   96  A    between atoms: _230  and  _231
REMARK   97  A    between atoms: _231  and  _232
REMARK   98  A    between atoms: _232  and  _233
REMARK   99  A    between atoms: _237  and  _239
REMARK  100  A    between atoms: _239  and  _240
REMARK  101  A    between atoms: _239  and  _242
REMARK  102  A    between atoms: _242  and  _243
REMARK  103  A    between atoms: _248  and  _250
REMARK  104  A    between atoms: _250  and  _251
REMARK  105  A    between atoms: _253  and  _255
REMARK  106  A    between atoms: _255  and  _256
REMARK  107  A    between atoms: _255  and  _258
REMARK  108  A    between atoms: _258  and  _259
REMARK  109  A    between atoms: _262  and  _264
REMARK  110  A    between atoms: _264  and  _265
REMARK  111  A    between atoms: _264  and  _267
REMARK  112  A    between atoms: _267  and  _268
REMARK  113  A    between atoms: _271  and  _273
REMARK  114  A    between atoms: _273  and  _274
REMARK  115  A    between atoms: _273  and  _276
REMARK  116  A    between atoms: _276  and  _277
REMARK  117  A    between atoms: _277  and  _278
REMARK  118  A    between atoms: _278  and  _279
REMARK  119  A    between atoms: _288  and  _290
REMARK  120  A    between atoms: _290  and  _291
REMARK  121  A    between atoms: _290  and  _293
REMARK  122  A    between atoms: _293  and  _294
REMARK  123  A    between atoms: _299  and  _301
REMARK  124  A    between atoms: _301  and  _302
REMARK  125  A    between atoms: _301  and  _304
REMARK  126  A    between atoms: _304  and  _305
REMARK  127  A    between atoms: _311  and  _313
REMARK  128  A    between atoms: _313  and  _314
REMARK  129  A    between atoms: _313  and  _316
REMARK  130  A    between atoms: _316  and  _317
REMARK  131  A    between atoms: _322  and  _324
REMARK  132  A    between atoms: _324  and  _325
REMARK  133  A    between atoms: _324  and  _327
REMARK  134  A    between atoms: _327  and  _328
REMARK  135  A    between atoms: _331  and  _333
REMARK  136  A    between atoms: _333  and  _334
REMARK  137  A    between atoms: _337  and  _339
REMARK  138  A    between atoms: _339  and  _340
REMARK  139  A    between atoms: _343  and  _345
REMARK  140  A    between atoms: _345  and  _346
REMARK  141  A    between atoms: _345  and  _348
REMARK  142  A    between atoms: _348  and  _349
REMARK  143  A    between atoms: _349  and  _350
REMARK  144  A    between atoms: _350  and  _351
REMARK  145  A    between atoms: _360  and  _362
REMARK  146  A    between atoms: _362  and  _363
REMARK  147  A    between atoms: _362  and  _365
REMARK  148  A    between atoms: _365  and  _366
REMARK  149  A    between atoms: _371  and  _373
REMARK  150  A    between atoms: _373  and  _374
REMARK  151  A    between atoms: _373  and  _376
REMARK  152  A    between atoms: _378  and  _380
REMARK  153  A    between atoms: _380  and  _381
REMARK  154  A    between atoms: _380  and  _383
REMARK  155  A    between atoms: _383  and  _384
REMARK  156  A    between atoms: _384  and  _385
REMARK  157  A    between atoms: _387  and  _389
REMARK  158  A    between atoms: _389  and  _390
REMARK  159  A    between atoms: _389  and  _392
REMARK  160  A    between atoms: _392  and  _393
REMARK  161  A    between atoms: _396  and  _398
REMARK  162  A    between atoms: _398  and  _399
REMARK  163  A    between atoms: _398  and  _401
REMARK  164  A    between atoms: _401  and  _402
REMARK  165  A    between atoms: _405  and  _407
REMARK  166  A    between atoms: _407  and  _408
REMARK  167  A    between atoms: _407  and  _410
REMARK  168  A    between atoms: _410  and  _411
REMARK  169  A    between atoms: _411  and  _412
REMARK  170  A    between atoms: _412  and  _413
REMARK  171  A    between atoms: _413  and  _414
REMARK  172  A    between atoms: _418  and  _420
REMARK  173  A    between atoms: _420  and  _421
REMARK  174  A    between atoms: _420  and  _423
REMARK  175  A    between atoms: _426  and  _428
REMARK  176  A    between atoms: _428  and  _429
REMARK  177  A    between atoms: _432  and  _434
REMARK  178  A    between atoms: _434  and  _435
REMARK  179  A    between atoms: _434  and  _437
REMARK  180  A    between atoms: _437  and  _438
REMARK  181  A    between atoms: _441  and  _443
REMARK  182  A    between atoms: _443  and  _444
REMARK  183  A    between atoms: _443  and  _446
REMARK  184  A    between atoms: _446  and  _447
REMARK  185  A    between atoms: _453  and  _455
REMARK  186  A    between atoms: _455  and  _456
REMARK  187  A    between atoms: _455  and  _458
REMARK  188  A    between atoms: _458  and  _459
REMARK  189  A    between atoms: _462  and  _464
REMARK  190  A    between atoms: _464  and  _465
REMARK  191  A    between atoms: _468  and  _470
REMARK  192  A    between atoms: _470  and  _471
REMARK  193  A    between atoms: _470  and  _473
REMARK  194  A    between atoms: _473  and  _474
REMARK  195  A    between atoms: _474  and  _475
REMARK  196  A    between atoms: _475  and  _476
REMARK  197  A    between atoms: _485  and  _487
REMARK  198  A    between atoms: _487  and  _488
REMARK  199  A    between atoms: _487  and  _490
REMARK  200  A    between atoms: _490  and  _491
REMARK  201  A    between atoms: _494  and  _496
REMARK  202  A    between atoms: _496  and  _497
REMARK  203  A    between atoms: _496  and  _499
REMARK  204  A    between atoms: _499  and  _500
REMARK  205  A    between atoms: _500  and  _501
REMARK  206  A    between atoms: _503  and  _505
REMARK  207  A    between atoms: _505  and  _506
REMARK  208  A    between atoms: _505  and  _508
REMARK  209  A    between atoms: _508  and  _509
REMARK  210  A    between atoms: _514  and  _515
REMARK  211  A    between atoms: _517  and  _519
REMARK  212  A    between atoms: _519  and  _520
REMARK  213  A    between atoms: _519  and  _522
REMARK  214  A    between atoms: _522  and  _523
REMARK  215  A    between atoms: _526  and  _528
REMARK  216  A    between atoms: _528  and  _529
REMARK  217  A    between atoms: _528  and  _531
REMARK  218  A    between atoms: _531  and  _532
REMARK  219  A    between atoms: _532  and  _533
REMARK  220  A    between atoms: _533  and  _534
REMARK  221  A    between atoms: _534  and  _535
REMARK  222  A    between atoms: _539  and  _541
REMARK  223  A    between atoms: _541  and  _542
REMARK  224  A    between atoms: _541  and  _544
REMARK  225  A    between atoms: _544  and  _545
REMARK  226  A    between atoms: _550  and  _551
REMARK                            x       y       z     vdW  Elec       q    Type
REMARK                         _______ _______ _______ _____ _____    ______ ____
ROOT
ATOM      1  O   HOH     1      26.904  83.584   0.766  0.00  0.00    +0.000 OA
ENDROOT
TORSDOF 0
REMARK  Name = ../refined-set-2016/3zc5/3zc5_pocket.pdb
REMARK  226 active torsions:
REMARK  status: ('A' for Active; 'I' for Inactive)
REMARK    1  A    between atoms: _1  and  _3
REMARK    2  A    between atoms: _3  and  _4
REMARK    3  A    between atoms: _3  and  _6
REMARK    4  A    between atoms: _9  and  _11
REMARK    5  A    between atoms: _11  and  _12
REMARK    6  A    between atoms: _11  and  _14
REMARK    7  A    between atoms: _14  and  _15
REMARK    8  A    between atoms: _18  and  _20
REMARK    9  A    between atoms: _20  and  _21
REMARK   10  A    between atoms: _23  and  _25
REMARK   11  A    between atoms: _25  and  _26
REMARK   12  A    between atoms: _25  and  _28
REMARK   13  A    between atoms: _28  and  _29
REMARK   14  A    between atoms: _29  and  _30
REMARK   15  A    between atoms: _30  and  _31
REMARK   16  A    between atoms: _40  and  _42
REMARK   17  A    between atoms: _42  and  _43
REMARK   18  A    between atoms: _45  and  _47
REMARK   19  A    between atoms: _47  and  _48
REMARK   20  A    between atoms: _47  and  _50
REMARK   21  A    between atoms: _52  and  _54
REMARK   22  A    between atoms: _54  and  _55
REMARK   23  A    between atoms: _54  and  _57
REMARK   24  A    between atoms: _60  and  _62
REMARK   25  A    between atoms: _62  and  _63
REMARK   26  A    between atoms: _62  and  _65
REMARK   27  A    between atoms: _65  and  _66
REMARK   28  A    between atoms: _71  and  _72
REMARK   29  A    between atoms: _74  and  _76
REMARK   30  A    between atoms: _76  and  _77
REMARK   31  A    between atoms: _76  and  _79
REMARK   32  A    between atoms: _79  and  _80
REMARK   33  A    between atoms: _85  and  _87
REMARK   34  A    between atoms: _87  and  _88
REMARK   35  A    between atoms: _90  and  _92
REMARK   36  A    between atoms: _92  and  _93
REMARK   37  A    between atoms: _92  and  _95
REMARK   38  A    between atoms: _95  and  _96
REMARK   39  A    between atoms: _101  and  _103
REMARK   40  A    between atoms: _103  and  _104
REMARK   41  A    between atoms: _103  and  _106
REMARK   42  A    between atoms: _108  and  _110
REMARK   43  A    between atoms: _110  and  _111
REMARK   44  A    between atoms: _114  and  _116
REMARK   45  A    between atoms: _116  and  _117
REMARK   46  A    between atoms: _116  and  _119
REMARK   47  A    between atoms: _122  and  _124
REMARK   48  A    between atoms: _124  and  _125
REMARK   49  A    between atoms: _124  and  _127
REMARK   50  A    between atoms: _127  and  _128
REMARK   51  A    between atoms: _128  and  _129
REMARK   52  A    between atoms: _129  and  _130
REMARK   53  A    between atoms: _130  and  _131
REMARK   54  A    between atoms: _135  and  _137
REMARK   55  A    between atoms: _137  and  _138
REMARK   56  A    between atoms: _137  and  _140
REMARK   57  A    between atoms: _140  and  _141
REMARK   58  A    between atoms: _143  and  _145
REMARK   59  A    between atoms: _145  and  _146
REMARK   60  A    between atoms: _145  and  _148
REMARK   61  A    between atoms: _148  and  _149
REMARK   62  A    between atoms: _149  and  _150
REMARK   63  A    between atoms: _152  and  _154
REMARK   64  A    between atoms: _154  and  _155
REMARK   65  A    between atoms: _154  and  _157
REMARK   66  A    between atoms: _157  and  _158
REMARK   67  A    between atoms: _161  and  _163
REMARK   68  A    between atoms: _163  and  _164
REMARK   69  A    between atoms: _163  and  _166
REMARK   70  A    between atoms: _166  and  _167
REMARK   71  A    between atoms: _169  and  _171
REMARK   72  A    between atoms: _171  and  _172
REMARK   73  A    between atoms: _171  and  _174
REMARK   74  A    between atoms: _177  and  _179
REMARK   75  A    between atoms: _179  and  _180
REMARK   76  A    between atoms: _179  and  _182
REMARK   77  A    between atoms: _185  and  _187
REMARK   78  A    between atoms: _187  and  _188
REMARK   79  A    between atoms: _187  and  _190
REMARK   80  A    between atoms: _190  and  _191
REMARK   81  A    between atoms: _195  and  _196
REMARK   82  A    between atoms: _201  and  _203
REMARK   83  A    between atoms: _203  and  _204
REMARK   84  A    between atoms: _203  and  _206
REMARK   85  A    between atoms: _206  and  _207
REMARK   86  A    between atoms: _212  and  _213
REMARK   87  A    between atoms: _215  and  _217
REMARK   88  A    between atoms: _217  and  _218
REMARK   89  A    between atoms: _217  and  _220
REMARK   90  A    between atoms: _220  and  _221
REMARK   91  A    between atoms: _221  and  _222
REMARK   92  A    between atoms: _224  and  _226
REMARK   93  A    between atoms: _226  and  _227
REMARK   94  A    between atoms: _226  and  _229
REMARK   95  A    between atoms: _229  and  _230
REMARK   96  A    between atoms: _230  and  _231
REMARK   97  A    between atoms: _231  and  _232
REMARK   98  A    between atoms: _232  and  _233
REMARK   99  A    between atoms: _237  and  _239
REMARK  100  A    between atoms: _239  and  _240
REMARK  101  A    between atoms: _239  and  _242
REMARK  102  A    between atoms: _242  and  _243
REMARK  103  A    between atoms: _248  and  _250
REMARK  104  A    between atoms: _250  and  _251
REMARK  105  A    between atoms: _253  and  _255
REMARK  106  A    between atoms: _255  and  _256
REMARK  107  A    between atoms: _255  and  _258
REMARK  108  A    between atoms: _258  and  _259
REMARK  109  A    between atoms: _262  and  _264
REMARK  110  A    between atoms: _264  and  _265
REMARK  111  A    between atoms: _264  and  _267
REMARK  112  A    between atoms: _267  and  _268
REMARK  113  A    between atoms: _271  and  _273
REMARK  114  A    between atoms: _273  and  _274
REMARK  115  A    between atoms: _273  and  _276
REMARK  116  A    between atoms: _276  and  _277
REMARK  117  A    between atoms: _277  and  _278
REMARK  118  A    between atoms: _278  and  _279
REMARK  119  A    between atoms: _288  and  _290
REMARK  120  A    between atoms: _290  and  _291
REMARK  121  A    between atoms: _290  and  _293
REMARK  122  A    between atoms: _293  and  _294
REMARK  123  A    between atoms: _299  and  _301
REMARK  124  A    between atoms: _301  and  _302
REMARK  125  A    between atoms: _301  and  _304
REMARK  126  A    between atoms: _304  and  _305
REMARK  127  A    between atoms: _311  and  _313
REMARK  128  A    between atoms: _313  and  _314
REMARK  129  A    between atoms: _313  and  _316
REMARK  130  A    between atoms: _316  and  _317
REMARK  131  A    between atoms: _322  and  _324
REMARK  132  A    between atoms: _324  and  _325
REMARK  133  A    between atoms: _324  and  _327
REMARK  134  A    between atoms: _327  and  _328
REMARK  135  A    between atoms: _331  and  _333
REMARK  136  A    between atoms: _333  and  _334
REMARK  137  A    between atoms: _337  and  _339
REMARK  138  A    between atoms: _339  and  _340
REMARK  139  A    between atoms: _343  and  _345
REMARK  140  A    between atoms: _345  and  _346
REMARK  141  A    between atoms: _345  and  _348
REMARK  142  A    between atoms: _348  and  _349
REMARK  143  A    between atoms: _349  and  _350
REMARK  144  A    between atoms: _350  and  _351
REMARK  145  A    between atoms: _360  and  _362
REMARK  146  A    between atoms: _362  and  _363
REMARK  147  A    between atoms: _362  and  _365
REMARK  148  A    between atoms: _365  and  _366
REMARK  149  A    between atoms: _371  and  _373
REMARK  150  A    between atoms: _373  and  _374
REMARK  151  A    between atoms: _373  and  _376
REMARK  152  A    between atoms: _378  and  _380
REMARK  153  A    between atoms: _380  and  _381
REMARK  154  A    between atoms: _380  and  _383
REMARK  155  A    between atoms: _383  and  _384
REMARK  156  A    between atoms: _384  and  _385
REMARK  157  A    between atoms: _387  and  _389
REMARK  158  A    between atoms: _389  and  _390
REMARK  159  A    between atoms: _389  and  _392
REMARK  160  A    between atoms: _392  and  _393
REMARK  161  A    between atoms: _396  and  _398
REMARK  162  A    between atoms: _398  and  _399
REMARK  163  A    between atoms: _398  and  _401
REMARK  164  A    between atoms: _401  and  _402
REMARK  165  A    between atoms: _405  and  _407
REMARK  166  A    between atoms: _407  and  _408
REMARK  167  A    between atoms: _407  and  _410
REMARK  168  A    between atoms: _410  and  _411
REMARK  169  A    between atoms: _411  and  _412
REMARK  170  A    between atoms: _412  and  _413
REMARK  171  A    between atoms: _413  and  _414
REMARK  172  A    between atoms: _418  and  _420
REMARK  173  A    between atoms: _420  and  _421
REMARK  174  A    between atoms: _420  and  _423
REMARK  175  A    between atoms: _426  and  _428
REMARK  176  A    between atoms: _428  and  _429
REMARK  177  A    between atoms: _432  and  _434
REMARK  178  A    between atoms: _434  and  _435
REMARK  179  A    between atoms: _434  and  _437
REMARK  180  A    between atoms: _437  and  _438
REMARK  181  A    between atoms: _441  and  _443
REMARK  182  A    between atoms: _443  and  _444
REMARK  183  A    between atoms: _443  and  _446
REMARK  184  A    between atoms: _446  and  _447
REMARK  185  A    between atoms: _453  and  _455
REMARK  186  A    between atoms: _455  and  _456
REMARK  187  A    between atoms: _455  and  _458
REMARK  188  A    between atoms: _458  and  _459
REMARK  189  A    between atoms: _462  and  _464
REMARK  190  A    between atoms: _464  and  _465
REMARK  191  A    between atoms: _468  and  _470
REMARK  192  A    between atoms: _470  and  _471
REMARK  193  A    between atoms: _470  and  _473
REMARK  194  A    between atoms: _473  and  _474
REMARK  195  A    between atoms: _474  and  _475
REMARK  196  A    between atoms: _475  and  _476
REMARK  197  A    between atoms: _485  and  _487
REMARK  198  A    between atoms: _487  and  _488
REMARK  199  A    between atoms: _487  and  _490
REMARK  200  A    between atoms: _490  and  _491
REMARK  201  A    between atoms: _494  and  _496
REMARK  202  A    between atoms: _496  and  _497
REMARK  203  A    between atoms: _496  and  _499
REMARK  204  A    between atoms: _499  and  _500
REMARK  205  A    between atoms: _500  and  _501
REMARK  206  A    between atoms: _503  and  _505
REMARK  207  A    between atoms: _505  and  _506
REMARK  208  A    between atoms: _505  and  _508
REMARK  209  A    between atoms: _508  and  _509
REMARK  210  A    between atoms: _514  and  _515
REMARK  211  A    between atoms: _517  and  _519
REMARK  212  A    between atoms: _519  and  _520
REMARK  213  A    between atoms: _519  and  _522
REMARK  214  A    between atoms: _522  and  _523
REMARK  215  A    between atoms: _526  and  _528
REMARK  216  A    between atoms: _528  and  _529
REMARK  217  A    between atoms: _528  and  _531
REMARK  218  A    between atoms: _531  and  _532
REMARK  219  A    between atoms: _532  and  _533
REMARK  220  A    between atoms: _533  and  _534
REMARK  221  A    between atoms: _534  and  _535
REMARK  222  A    between atoms: _539  and  _541
REMARK  223  A    between atoms: _541  and  _542
REMARK  224  A    between atoms: _541  and  _544
REMARK  225  A    between atoms: _544  and  _545
REMARK  226  A    between atoms: _550  and  _551
REMARK                            x       y       z     vdW  Elec       q    Type
REMARK                         _______ _______ _______ _____ _____    ______ ____
ROOT
ATOM      1  O   HOH     1      24.999  77.892   0.549  0.00  0.00    +0.000 OA
ENDROOT
TORSDOF 0
REMARK  Name = ../refined-set-2016/3zc5/3zc5_pocket.pdb
REMARK  226 active torsions:
REMARK  status: ('A' for Active; 'I' for Inactive)
REMARK    1  A    between atoms: _1  and  _3
REMARK    2  A    between atoms: _3  and  _4
REMARK    3  A    between atoms: _3  and  _6
REMARK    4  A    between atoms: _9  and  _11
REMARK    5  A    between atoms: _11  and  _12
REMARK    6  A    between atoms: _11  and  _14
REMARK    7  A    between atoms: _14  and  _15
REMARK    8  A    between atoms: _18  and  _20
REMARK    9  A    between atoms: _20  and  _21
REMARK   10  A    between atoms: _23  and  _25
REMARK   11  A    between atoms: _25  and  _26
REMARK   12  A    between atoms: _25  and  _28
REMARK   13  A    between atoms: _28  and  _29
REMARK   14  A    between atoms: _29  and  _30
REMARK   15  A    between atoms: _30  and  _31
REMARK   16  A    between atoms: _40  and  _42
REMARK   17  A    between atoms: _42  and  _43
REMARK   18  A    between atoms: _45  and  _47
REMARK   19  A    between atoms: _47  and  _48
REMARK   20  A    between atoms: _47  and  _50
REMARK   21  A    between atoms: _52  and  _54
REMARK   22  A    between atoms: _54  and  _55
REMARK   23  A    between atoms: _54  and  _57
REMARK   24  A    between atoms: _60  and  _62
REMARK   25  A    between atoms: _62  and  _63
REMARK   26  A    between atoms: _62  and  _65
REMARK   27  A    between atoms: _65  and  _66
REMARK   28  A    between atoms: _71  and  _72
REMARK   29  A    between atoms: _74  and  _76
REMARK   30  A    between atoms: _76  and  _77
REMARK   31  A    between atoms: _76  and  _79
REMARK   32  A    between atoms: _79  and  _80
REMARK   33  A    between atoms: _85  and  _87
REMARK   34  A    between atoms: _87  and  _88
REMARK   35  A    between atoms: _90  and  _92
REMARK   36  A    between atoms: _92  and  _93
REMARK   37  A    between atoms: _92  and  _95
REMARK   38  A    between atoms: _95  and  _96
REMARK   39  A    between atoms: _101  and  _103
REMARK   40  A    between atoms: _103  and  _104
REMARK   41  A    between atoms: _103  and  _106
REMARK   42  A    between atoms: _108  and  _110
REMARK   43  A    between atoms: _110  and  _111
REMARK   44  A    between atoms: _114  and  _116
REMARK   45  A    between atoms: _116  and  _117
REMARK   46  A    between atoms: _116  and  _119
REMARK   47  A    between atoms: _122  and  _124
REMARK   48  A    between atoms: _124  and  _125
REMARK   49  A    between atoms: _124  and  _127
REMARK   50  A    between atoms: _127  and  _128
REMARK   51  A    between atoms: _128  and  _129
REMARK   52  A    between atoms: _129  and  _130
REMARK   53  A    between atoms: _130  and  _131
REMARK   54  A    between atoms: _135  and  _137
REMARK   55  A    between atoms: _137  and  _138
REMARK   56  A    between atoms: _137  and  _140
REMARK   57  A    between atoms: _140  and  _141
REMARK   58  A    between atoms: _143  and  _145
REMARK   59  A    between atoms: _145  and  _146
REMARK   60  A    between atoms: _145  and  _148
REMARK   61  A    between atoms: _148  and  _149
REMARK   62  A    between atoms: _149  and  _150
REMARK   63  A    between atoms: _152  and  _154
REMARK   64  A    between atoms: _154  and  _155
REMARK   65  A    between atoms: _154  and  _157
REMARK   66  A    between atoms: _157  and  _158
REMARK   67  A    between atoms: _161  and  _163
REMARK   68  A    between atoms: _163  and  _164
REMARK   69  A    between atoms: _163  and  _166
REMARK   70  A    between atoms: _166  and  _167
REMARK   71  A    between atoms: _169  and  _171
REMARK   72  A    between atoms: _171  and  _172
REMARK   73  A    between atoms: _171  and  _174
REMARK   74  A    between atoms: _177  and  _179
REMARK   75  A    between atoms: _179  and  _180
REMARK   76  A    between atoms: _179  and  _182
REMARK   77  A    between atoms: _185  and  _187
REMARK   78  A    between atoms: _187  and  _188
REMARK   79  A    between atoms: _187  and  _190
REMARK   80  A    between atoms: _190  and  _191
REMARK   81  A    between atoms: _195  and  _196
REMARK   82  A    between atoms: _201  and  _203
REMARK   83  A    between atoms: _203  and  _204
REMARK   84  A    between atoms: _203  and  _206
REMARK   85  A    between atoms: _206  and  _207
REMARK   86  A    between atoms: _212  and  _213
REMARK   87  A    between atoms: _215  and  _217
REMARK   88  A    between atoms: _217  and  _218
REMARK   89  A    between atoms: _217  and  _220
REMARK   90  A    between atoms: _220  and  _221
REMARK   91  A    between atoms: _221  and  _222
REMARK   92  A    between atoms: _224  and  _226
REMARK   93  A    between atoms: _226  and  _227
REMARK   94  A    between atoms: _226  and  _229
REMARK   95  A    between atoms: _229  and  _230
REMARK   96  A    between atoms: _230  and  _231
REMARK   97  A    between atoms: _231  and  _232
REMARK   98  A    between atoms: _232  and  _233
REMARK   99  A    between atoms: _237  and  _239
REMARK  100  A    between atoms: _239  and  _240
REMARK  101  A    between atoms: _239  and  _242
REMARK  102  A    between atoms: _242  and  _243
REMARK  103  A    between atoms: _248  and  _250
REMARK  104  A    between atoms: _250  and  _251
REMARK  105  A    between atoms: _253  and  _255
REMARK  106  A    between atoms: _255  and  _256
REMARK  107  A    between atoms: _255  and  _258
REMARK  108  A    between atoms: _258  and  _259
REMARK  109  A    between atoms: _262  and  _264
REMARK  110  A    between atoms: _264  and  _265
REMARK  111  A    between atoms: _264  and  _267
REMARK  112  A    between atoms: _267  and  _268
REMARK  113  A    between atoms: _271  and  _273
REMARK  114  A    between atoms: _273  and  _274
REMARK  115  A    between atoms: _273  and  _276
REMARK  116  A    between atoms: _276  and  _277
REMARK  117  A    between atoms: _277  and  _278
REMARK  118  A    between atoms: _278  and  _279
REMARK  119  A    between atoms: _288  and  _290
REMARK  120  A    between atoms: _290  and  _291
REMARK  121  A    between atoms: _290  and  _293
REMARK  122  A    between atoms: _293  and  _294
REMARK  123  A    between atoms: _299  and  _301
REMARK  124  A    between atoms: _301  and  _302
REMARK  125  A    between atoms: _301  and  _304
REMARK  126  A    between atoms: _304  and  _305
REMARK  127  A    between atoms: _311  and  _313
REMARK  128  A    between atoms: _313  and  _314
REMARK  129  A    between atoms: _313  and  _316
REMARK  130  A    between atoms: _316  and  _317
REMARK  131  A    between atoms: _322  and  _324
REMARK  132  A    between atoms: _324  and  _325
REMARK  133  A    between atoms: _324  and  _327
REMARK  134  A    between atoms: _327  and  _328
REMARK  135  A    between atoms: _331  and  _333
REMARK  136  A    between atoms: _333  and  _334
REMARK  137  A    between atoms: _337  and  _339
REMARK  138  A    between atoms: _339  and  _340
REMARK  139  A    between atoms: _343  and  _345
REMARK  140  A    between atoms: _345  and  _346
REMARK  141  A    between atoms: _345  and  _348
REMARK  142  A    between atoms: _348  and  _349
REMARK  143  A    between atoms: _349  and  _350
REMARK  144  A    between atoms: _350  and  _351
REMARK  145  A    between atoms: _360  and  _362
REMARK  146  A    between atoms: _362  and  _363
REMARK  147  A    between atoms: _362  and  _365
REMARK  148  A    between atoms: _365  and  _366
REMARK  149  A    between atoms: _371  and  _373
REMARK  150  A    between atoms: _373  and  _374
REMARK  151  A    between atoms: _373  and  _376
REMARK  152  A    between atoms: _378  and  _380
REMARK  153  A    between atoms: _380  and  _381
REMARK  154  A    between atoms: _380  and  _383
REMARK  155  A    between atoms: _383  and  _384
REMARK  156  A    between atoms: _384  and  _385
REMARK  157  A    between atoms: _387  and  _389
REMARK  158  A    between atoms: _389  and  _390
REMARK  159  A    between atoms: _389  and  _392
REMARK  160  A    between atoms: _392  and  _393
REMARK  161  A    between atoms: _396  and  _398
REMARK  162  A    between atoms: _398  and  _399
REMARK  163  A    between atoms: _398  and  _401
REMARK  164  A    between atoms: _401  and  _402
REMARK  165  A    between atoms: _405  and  _407
REMARK  166  A    between atoms: _407  and  _408
REMARK  167  A    between atoms: _407  and  _410
REMARK  168  A    between atoms: _410  and  _411
REMARK  169  A    between atoms: _411  and  _412
REMARK  170  A    between atoms: _412  and  _413
REMARK  171  A    between atoms: _413  and  _414
REMARK  172  A    between atoms: _418  and  _420
REMARK  173  A    between atoms: _420  and  _421
REMARK  174  A    between atoms: _420  and  _423
REMARK  175  A    between atoms: _426  and  _428
REMARK  176  A    between atoms: _428  and  _429
REMARK  177  A    between atoms: _432  and  _434
REMARK  178  A    between atoms: _434  and  _435
REMARK  179  A    between atoms: _434  and  _437
REMARK  180  A    between atoms: _437  and  _438
REMARK  181  A    between atoms: _441  and  _443
REMARK  182  A    between atoms: _443  and  _444
REMARK  183  A    between atoms: _443  and  _446
REMARK  184  A    between atoms: _446  and  _447
REMARK  185  A    between atoms: _453  and  _455
REMARK  186  A    between atoms: _455  and  _456
REMARK  187  A    between atoms: _455  and  _458
REMARK  188  A    between atoms: _458  and  _459
REMARK  189  A    between atoms: _462  and  _464
REMARK  190  A    between atoms: _464  and  _465
REMARK  191  A    between atoms: _468  and  _470
REMARK  192  A    between atoms: _470  and  _471
REMARK  193  A    between atoms: _470  and  _473
REMARK  194  A    between atoms: _473  and  _474
REMARK  195  A    between atoms: _474  and  _475
REMARK  196  A    between atoms: _475  and  _476
REMARK  197  A    between atoms: _485  and  _487
REMARK  198  A    between atoms: _487  and  _488
REMARK  199  A    between atoms: _487  and  _490
REMARK  200  A    between atoms: _490  and  _491
REMARK  201  A    between atoms: _494  and  _496
REMARK  202  A    between atoms: _496  and  _497
REMARK  203  A    between atoms: _496  and  _499
REMARK  204  A    between atoms: _499  and  _500
REMARK  205  A    between atoms: _500  and  _501
REMARK  206  A    between atoms: _503  and  _505
REMARK  207  A    between atoms: _505  and  _506
REMARK  208  A    between atoms: _505  and  _508
REMARK  209  A    between atoms: _508  and  _509
REMARK  210  A    between atoms: _514  and  _515
REMARK  211  A    between atoms: _517  and  _519
REMARK  212  A    between atoms: _519  and  _520
REMARK  213  A    between atoms: _519  and  _522
REMARK  214  A    between atoms: _522  and  _523
REMARK  215  A    between atoms: _526  and  _528
REMARK  216  A    between atoms: _528  and  _529
REMARK  217  A    between atoms: _528  and  _531
REMARK  218  A    between atoms: _531  and  _532
REMARK  219  A    between atoms: _532  and  _533
REMARK  220  A    between atoms: _533  and  _534
REMARK  221  A    between atoms: _534  and  _535
REMARK  222  A    between atoms: _539  and  _541
REMARK  223  A    between atoms: _541  and  _542
REMARK  224  A    between atoms: _541  and  _544
REMARK  225  A    between atoms: _544  and  _545
REMARK  226  A    between atoms: _550  and  _551
REMARK                            x       y       z     vdW  Elec       q    Type
REMARK                         _______ _______ _______ _____ _____    ______ ____
ROOT
ATOM      1  O   HOH     1      22.255  81.249   0.794  0.00  0.00    +0.000 OA
ENDROOT
TORSDOF 0
REMARK  Name = ../refined-set-2016/3zc5/3zc5_pocket.pdb
REMARK  226 active torsions:
REMARK  status: ('A' for Active; 'I' for Inactive)
REMARK    1  A    between atoms: _1  and  _3
REMARK    2  A    between atoms: _3  and  _4
REMARK    3  A    between atoms: _3  and  _6
REMARK    4  A    between atoms: _9  and  _11
REMARK    5  A    between atoms: _11  and  _12
REMARK    6  A    between atoms: _11  and  _14
REMARK    7  A    between atoms: _14  and  _15
REMARK    8  A    between atoms: _18  and  _20
REMARK    9  A    between atoms: _20  and  _21
REMARK   10  A    between atoms: _23  and  _25
REMARK   11  A    between atoms: _25  and  _26
REMARK   12  A    between atoms: _25  and  _28
REMARK   13  A    between atoms: _28  and  _29
REMARK   14  A    between atoms: _29  and  _30
REMARK   15  A    between atoms: _30  and  _31
REMARK   16  A    between atoms: _40  and  _42
REMARK   17  A    between atoms: _42  and  _43
REMARK   18  A    between atoms: _45  and  _47
REMARK   19  A    between atoms: _47  and  _48
REMARK   20  A    between atoms: _47  and  _50
REMARK   21  A    between atoms: _52  and  _54
REMARK   22  A    between atoms: _54  and  _55
REMARK   23  A    between atoms: _54  and  _57
REMARK   24  A    between atoms: _60  and  _62
REMARK   25  A    between atoms: _62  and  _63
REMARK   26  A    between atoms: _62  and  _65
REMARK   27  A    between atoms: _65  and  _66
REMARK   28  A    between atoms: _71  and  _72
REMARK   29  A    between atoms: _74  and  _76
REMARK   30  A    between atoms: _76  and  _77
REMARK   31  A    between atoms: _76  and  _79
REMARK   32  A    between atoms: _79  and  _80
REMARK   33  A    between atoms: _85  and  _87
REMARK   34  A    between atoms: _87  and  _88
REMARK   35  A    between atoms: _90  and  _92
REMARK   36  A    between atoms: _92  and  _93
REMARK   37  A    between atoms: _92  and  _95
REMARK   38  A    between atoms: _95  and  _96
REMARK   39  A    between atoms: _101  and  _103
REMARK   40  A    between atoms: _103  and  _104
REMARK   41  A    between atoms: _103  and  _106
REMARK   42  A    between atoms: _108  and  _110
REMARK   43  A    between atoms: _110  and  _111
REMARK   44  A    between atoms: _114  and  _116
REMARK   45  A    between atoms: _116  and  _117
REMARK   46  A    between atoms: _116  and  _119
REMARK   47  A    between atoms: _122  and  _124
REMARK   48  A    between atoms: _124  and  _125
REMARK   49  A    between atoms: _124  and  _127
REMARK   50  A    between atoms: _127  and  _128
REMARK   51  A    between atoms: _128  and  _129
REMARK   52  A    between atoms: _129  and  _130
REMARK   53  A    between atoms: _130  and  _131
REMARK   54  A    between atoms: _135  and  _137
REMARK   55  A    between atoms: _137  and  _138
REMARK   56  A    between atoms: _137  and  _140
REMARK   57  A    between atoms: _140  and  _141
REMARK   58  A    between atoms: _143  and  _145
REMARK   59  A    between atoms: _145  and  _146
REMARK   60  A    between atoms: _145  and  _148
REMARK   61  A    between atoms: _148  and  _149
REMARK   62  A    between atoms: _149  and  _150
REMARK   63  A    between atoms: _152  and  _154
REMARK   64  A    between atoms: _154  and  _155
REMARK   65  A    between atoms: _154  and  _157
REMARK   66  A    between atoms: _157  and  _158
REMARK   67  A    between atoms: _161  and  _163
REMARK   68  A    between atoms: _163  and  _164
REMARK   69  A    between atoms: _163  and  _166
REMARK   70  A    between atoms: _166  and  _167
REMARK   71  A    between atoms: _169  and  _171
REMARK   72  A    between atoms: _171  and  _172
REMARK   73  A    between atoms: _171  and  _174
REMARK   74  A    between atoms: _177  and  _179
REMARK   75  A    between atoms: _179  and  _180
REMARK   76  A    between atoms: _179  and  _182
REMARK   77  A    between atoms: _185  and  _187
REMARK   78  A    between atoms: _187  and  _188
REMARK   79  A    between atoms: _187  and  _190
REMARK   80  A    between atoms: _190  and  _191
REMARK   81  A    between atoms: _195  and  _196
REMARK   82  A    between atoms: _201  and  _203
REMARK   83  A    between atoms: _203  and  _204
REMARK   84  A    between atoms: _203  and  _206
REMARK   85  A    between atoms: _206  and  _207
REMARK   86  A    between atoms: _212  and  _213
REMARK   87  A    between atoms: _215  and  _217
REMARK   88  A    between atoms: _217  and  _218
REMARK   89  A    between atoms: _217  and  _220
REMARK   90  A    between atoms: _220  and  _221
REMARK   91  A    between atoms: _221  and  _222
REMARK   92  A    between atoms: _224  and  _226
REMARK   93  A    between atoms: _226  and  _227
REMARK   94  A    between atoms: _226  and  _229
REMARK   95  A    between atoms: _229  and  _230
REMARK   96  A    between atoms: _230  and  _231
REMARK   97  A    between atoms: _231  and  _232
REMARK   98  A    between atoms: _232  and  _233
REMARK   99  A    between atoms: _237  and  _239
REMARK  100  A    between atoms: _239  and  _240
REMARK  101  A    between atoms: _239  and  _242
REMARK  102  A    between atoms: _242  and  _243
REMARK  103  A    between atoms: _248  and  _250
REMARK  104  A    between atoms: _250  and  _251
REMARK  105  A    between atoms: _253  and  _255
REMARK  106  A    between atoms: _255  and  _256
REMARK  107  A    between atoms: _255  and  _258
REMARK  108  A    between atoms: _258  and  _259
REMARK  109  A    between atoms: _262  and  _264
REMARK  110  A    between atoms: _264  and  _265
REMARK  111  A    between atoms: _264  and  _267
REMARK  112  A    between atoms: _267  and  _268
REMARK  113  A    between atoms: _271  and  _273
REMARK  114  A    between atoms: _273  and  _274
REMARK  115  A    between atoms: _273  and  _276
REMARK  116  A    between atoms: _276  and  _277
REMARK  117  A    between atoms: _277  and  _278
REMARK  118  A    between atoms: _278  and  _279
REMARK  119  A    between atoms: _288  and  _290
REMARK  120  A    between atoms: _290  and  _291
REMARK  121  A    between atoms: _290  and  _293
REMARK  122  A    between atoms: _293  and  _294
REMARK  123  A    between atoms: _299  and  _301
REMARK  124  A    between atoms: _301  and  _302
REMARK  125  A    between atoms: _301  and  _304
REMARK  126  A    between atoms: _304  and  _305
REMARK  127  A    between atoms: _311  and  _313
REMARK  128  A    between atoms: _313  and  _314
REMARK  129  A    between atoms: _313  and  _316
REMARK  130  A    between atoms: _316  and  _317
REMARK  131  A    between atoms: _322  and  _324
REMARK  132  A    between atoms: _324  and  _325
REMARK  133  A    between atoms: _324  and  _327
REMARK  134  A    between atoms: _327  and  _328
REMARK  135  A    between atoms: _331  and  _333
REMARK  136  A    between atoms: _333  and  _334
REMARK  137  A    between atoms: _337  and  _339
REMARK  138  A    between atoms: _339  and  _340
REMARK  139  A    between atoms: _343  and  _345
REMARK  140  A    between atoms: _345  and  _346
REMARK  141  A    between atoms: _345  and  _348
REMARK  142  A    between atoms: _348  and  _349
REMARK  143  A    between atoms: _349  and  _350
REMARK  144  A    between atoms: _350  and  _351
REMARK  145  A    between atoms: _360  and  _362
REMARK  146  A    between atoms: _362  and  _363
REMARK  147  A    between atoms: _362  and  _365
REMARK  148  A    between atoms: _365  and  _366
REMARK  149  A    between atoms: _371  and  _373
REMARK  150  A    between atoms: _373  and  _374
REMARK  151  A    between atoms: _373  and  _376
REMARK  152  A    between atoms: _378  and  _380
REMARK  153  A    between atoms: _380  and  _381
REMARK  154  A    between atoms: _380  and  _383
REMARK  155  A    between atoms: _383  and  _384
REMARK  156  A    between atoms: _384  and  _385
REMARK  157  A    between atoms: _387  and  _389
REMARK  158  A    between atoms: _389  and  _390
REMARK  159  A    between atoms: _389  and  _392
REMARK  160  A    between atoms: _392  and  _393
REMARK  161  A    between atoms: _396  and  _398
REMARK  162  A    between atoms: _398  and  _399
REMARK  163  A    between atoms: _398  and  _401
REMARK  164  A    between atoms: _401  and  _402
REMARK  165  A    between atoms: _405  and  _407
REMARK  166  A    between atoms: _407  and  _408
REMARK  167  A    between atoms: _407  and  _410
REMARK  168  A    between atoms: _410  and  _411
REMARK  169  A    between atoms: _411  and  _412
REMARK  170  A    between atoms: _412  and  _413
REMARK  171  A    between atoms: _413  and  _414
REMARK  172  A    between atoms: _418  and  _420
REMARK  173  A    between atoms: _420  and  _421
REMARK  174  A    between atoms: _420  and  _423
REMARK  175  A    between atoms: _426  and  _428
REMARK  176  A    between atoms: _428  and  _429
REMARK  177  A    between atoms: _432  and  _434
REMARK  178  A    between atoms: _434  and  _435
REMARK  179  A    between atoms: _434  and  _437
REMARK  180  A    between atoms: _437  and  _438
REMARK  181  A    between atoms: _441  and  _443
REMARK  182  A    between atoms: _443  and  _444
REMARK  183  A    between atoms: _443  and  _446
REMARK  184  A    between atoms: _446  and  _447
REMARK  185  A    between atoms: _453  and  _455
REMARK  186  A    between atoms: _455  and  _456
REMARK  187  A    between atoms: _455  and  _458
REMARK  188  A    between atoms: _458  and  _459
REMARK  189  A    between atoms: _462  and  _464
REMARK  190  A    between atoms: _464  and  _465
REMARK  191  A    between atoms: _468  and  _470
REMARK  192  A    between atoms: _470  and  _471
REMARK  193  A    between atoms: _470  and  _473
REMARK  194  A    between atoms: _473  and  _474
REMARK  195  A    between atoms: _474  and  _475
REMARK  196  A    between atoms: _475  and  _476
REMARK  197  A    between atoms: _485  and  _487
REMARK  198  A    between atoms: _487  and  _488
REMARK  199  A    between atoms: _487  and  _490
REMARK  200  A    between atoms: _490  and  _491
REMARK  201  A    between atoms: _494  and  _496
REMARK  202  A    between atoms: _496  and  _497
REMARK  203  A    between atoms: _496  and  _499
REMARK  204  A    between atoms: _499  and  _500
REMARK  205  A    between atoms: _500  and  _501
REMARK  206  A    between atoms: _503  and  _505
REMARK  207  A    between atoms: _505  and  _506
REMARK  208  A    between atoms: _505  and  _508
REMARK  209  A    between atoms: _508  and  _509
REMARK  210  A    between atoms: _514  and  _515
REMARK  211  A    between atoms: _517  and  _519
REMARK  212  A    between atoms: _519  and  _520
REMARK  213  A    between atoms: _519  and  _522
REMARK  214  A    between atoms: _522  and  _523
REMARK  215  A    between atoms: _526  and  _528
REMARK  216  A    between atoms: _528  and  _529
REMARK  217  A    between atoms: _528  and  _531
REMARK  218  A    between atoms: _531  and  _532
REMARK  219  A    between atoms: _532  and  _533
REMARK  220  A    between atoms: _533  and  _534
REMARK  221  A    between atoms: _534  and  _535
REMARK  222  A    between atoms: _539  and  _541
REMARK  223  A    between atoms: _541  and  _542
REMARK  224  A    between atoms: _541  and  _544
REMARK  225  A    between atoms: _544  and  _545
REMARK  226  A    between atoms: _550  and  _551
REMARK                            x       y       z     vdW  Elec       q    Type
REMARK                         _______ _______ _______ _____ _____    ______ ____
ROOT
ATOM      1  O   HOH     1      17.704  76.561   0.193  0.00  0.00    +0.000 OA
ENDROOT
TORSDOF 0
REMARK  Name = ../refined-set-2016/3zc5/3zc5_pocket.pdb
REMARK  226 active torsions:
REMARK  status: ('A' for Active; 'I' for Inactive)
REMARK    1  A    between atoms: _1  and  _3
REMARK    2  A    between atoms: _3  and  _4
REMARK    3  A    between atoms: _3  and  _6
REMARK    4  A    between atoms: _9  and  _11
REMARK    5  A    between atoms: _11  and  _12
REMARK    6  A    between atoms: _11  and  _14
REMARK    7  A    between atoms: _14  and  _15
REMARK    8  A    between atoms: _18  and  _20
REMARK    9  A    between atoms: _20  and  _21
REMARK   10  A    between atoms: _23  and  _25
REMARK   11  A    between atoms: _25  and  _26
REMARK   12  A    between atoms: _25  and  _28
REMARK   13  A    between atoms: _28  and  _29
REMARK   14  A    between atoms: _29  and  _30
REMARK   15  A    between atoms: _30  and  _31
REMARK   16  A    between atoms: _40  and  _42
REMARK   17  A    between atoms: _42  and  _43
REMARK   18  A    between atoms: _45  and  _47
REMARK   19  A    between atoms: _47  and  _48
REMARK   20  A    between atoms: _47  and  _50
REMARK   21  A    between atoms: _52  and  _54
REMARK   22  A    between atoms: _54  and  _55
REMARK   23  A    between atoms: _54  and  _57
REMARK   24  A    between atoms: _60  and  _62
REMARK   25  A    between atoms: _62  and  _63
REMARK   26  A    between atoms: _62  and  _65
REMARK   27  A    between atoms: _65  and  _66
REMARK   28  A    between atoms: _71  and  _72
REMARK   29  A    between atoms: _74  and  _76
REMARK   30  A    between atoms: _76  and  _77
REMARK   31  A    between atoms: _76  and  _79
REMARK   32  A    between atoms: _79  and  _80
REMARK   33  A    between atoms: _85  and  _87
REMARK   34  A    between atoms: _87  and  _88
REMARK   35  A    between atoms: _90  and  _92
REMARK   36  A    between atoms: _92  and  _93
REMARK   37  A    between atoms: _92  and  _95
REMARK   38  A    between atoms: _95  and  _96
REMARK   39  A    between atoms: _101  and  _103
REMARK   40  A    between atoms: _103  and  _104
REMARK   41  A    between atoms: _103  and  _106
REMARK   42  A    between atoms: _108  and  _110
REMARK   43  A    between atoms: _110  and  _111
REMARK   44  A    between atoms: _114  and  _116
REMARK   45  A    between atoms: _116  and  _117
REMARK   46  A    between atoms: _116  and  _119
REMARK   47  A    between atoms: _122  and  _124
REMARK   48  A    between atoms: _124  and  _125
REMARK   49  A    between atoms: _124  and  _127
REMARK   50  A    between atoms: _127  and  _128
REMARK   51  A    between atoms: _128  and  _129
REMARK   52  A    between atoms: _129  and  _130
REMARK   53  A    between atoms: _130  and  _131
REMARK   54  A    between atoms: _135  and  _137
REMARK   55  A    between atoms: _137  and  _138
REMARK   56  A    between atoms: _137  and  _140
REMARK   57  A    between atoms: _140  and  _141
REMARK   58  A    between atoms: _143  and  _145
REMARK   59  A    between atoms: _145  and  _146
REMARK   60  A    between atoms: _145  and  _148
REMARK   61  A    between atoms: _148  and  _149
REMARK   62  A    between atoms: _149  and  _150
REMARK   63  A    between atoms: _152  and  _154
REMARK   64  A    between atoms: _154  and  _155
REMARK   65  A    between atoms: _154  and  _157
REMARK   66  A    between atoms: _157  and  _158
REMARK   67  A    between atoms: _161  and  _163
REMARK   68  A    between atoms: _163  and  _164
REMARK   69  A    between atoms: _163  and  _166
REMARK   70  A    between atoms: _166  and  _167
REMARK   71  A    between atoms: _169  and  _171
REMARK   72  A    between atoms: _171  and  _172
REMARK   73  A    between atoms: _171  and  _174
REMARK   74  A    between atoms: _177  and  _179
REMARK   75  A    between atoms: _179  and  _180
REMARK   76  A    between atoms: _179  and  _182
REMARK   77  A    between atoms: _185  and  _187
REMARK   78  A    between atoms: _187  and  _188
REMARK   79  A    between atoms: _187  and  _190
REMARK   80  A    between atoms: _190  and  _191
REMARK   81  A    between atoms: _195  and  _196
REMARK   82  A    between atoms: _201  and  _203
REMARK   83  A    between atoms: _203  and  _204
REMARK   84  A    between atoms: _203  and  _206
REMARK   85  A    between atoms: _206  and  _207
REMARK   86  A    between atoms: _212  and  _213
REMARK   87  A    between atoms: _215  and  _217
REMARK   88  A    between atoms: _217  and  _218
REMARK   89  A    between atoms: _217  and  _220
REMARK   90  A    between atoms: _220  and  _221
REMARK   91  A    between atoms: _221  and  _222
REMARK   92  A    between atoms: _224  and  _226
REMARK   93  A    between atoms: _226  and  _227
REMARK   94  A    between atoms: _226  and  _229
REMARK   95  A    between atoms: _229  and  _230
REMARK   96  A    between atoms: _230  and  _231
REMARK   97  A    between atoms: _231  and  _232
REMARK   98  A    between atoms: _232  and  _233
REMARK   99  A    between atoms: _237  and  _239
REMARK  100  A    between atoms: _239  and  _240
REMARK  101  A    between atoms: _239  and  _242
REMARK  102  A    between atoms: _242  and  _243
REMARK  103  A    between atoms: _248  and  _250
REMARK  104  A    between atoms: _250  and  _251
REMARK  105  A    between atoms: _253  and  _255
REMARK  106  A    between atoms: _255  and  _256
REMARK  107  A    between atoms: _255  and  _258
REMARK  108  A    between atoms: _258  and  _259
REMARK  109  A    between atoms: _262  and  _264
REMARK  110  A    between atoms: _264  and  _265
REMARK  111  A    between atoms: _264  and  _267
REMARK  112  A    between atoms: _267  and  _268
REMARK  113  A    between atoms: _271  and  _273
REMARK  114  A    between atoms: _273  and  _274
REMARK  115  A    between atoms: _273  and  _276
REMARK  116  A    between atoms: _276  and  _277
REMARK  117  A    between atoms: _277  and  _278
REMARK  118  A    between atoms: _278  and  _279
REMARK  119  A    between atoms: _288  and  _290
REMARK  120  A    between atoms: _290  and  _291
REMARK  121  A    between atoms: _290  and  _293
REMARK  122  A    between atoms: _293  and  _294
REMARK  123  A    between atoms: _299  and  _301
REMARK  124  A    between atoms: _301  and  _302
REMARK  125  A    between atoms: _301  and  _304
REMARK  126  A    between atoms: _304  and  _305
REMARK  127  A    between atoms: _311  and  _313
REMARK  128  A    between atoms: _313  and  _314
REMARK  129  A    between atoms: _313  and  _316
REMARK  130  A    between atoms: _316  and  _317
REMARK  131  A    between atoms: _322  and  _324
REMARK  132  A    between atoms: _324  and  _325
REMARK  133  A    between atoms: _324  and  _327
REMARK  134  A    between atoms: _327  and  _328
REMARK  135  A    between atoms: _331  and  _333
REMARK  136  A    between atoms: _333  and  _334
REMARK  137  A    between atoms: _337  and  _339
REMARK  138  A    between atoms: _339  and  _340
REMARK  139  A    between atoms: _343  and  _345
REMARK  140  A    between atoms: _345  and  _346
REMARK  141  A    between atoms: _345  and  _348
REMARK  142  A    between atoms: _348  and  _349
REMARK  143  A    between atoms: _349  and  _350
REMARK  144  A    between atoms: _350  and  _351
REMARK  145  A    between atoms: _360  and  _362
REMARK  146  A    between atoms: _362  and  _363
REMARK  147  A    between atoms: _362  and  _365
REMARK  148  A    between atoms: _365  and  _366
REMARK  149  A    between atoms: _371  and  _373
REMARK  150  A    between atoms: _373  and  _374
REMARK  151  A    between atoms: _373  and  _376
REMARK  152  A    between atoms: _378  and  _380
REMARK  153  A    between atoms: _380  and  _381
REMARK  154  A    between atoms: _380  and  _383
REMARK  155  A    between atoms: _383  and  _384
REMARK  156  A    between atoms: _384  and  _385
REMARK  157  A    between atoms: _387  and  _389
REMARK  158  A    between atoms: _389  and  _390
REMARK  159  A    between atoms: _389  and  _392
REMARK  160  A    between atoms: _392  and  _393
REMARK  161  A    between atoms: _396  and  _398
REMARK  162  A    between atoms: _398  and  _399
REMARK  163  A    between atoms: _398  and  _401
REMARK  164  A    between atoms: _401  and  _402
REMARK  165  A    between atoms: _405  and  _407
REMARK  166  A    between atoms: _407  and  _408
REMARK  167  A    between atoms: _407  and  _410
REMARK  168  A    between atoms: _410  and  _411
REMARK  169  A    between atoms: _411  and  _412
REMARK  170  A    between atoms: _412  and  _413
REMARK  171  A    between atoms: _413  and  _414
REMARK  172  A    between atoms: _418  and  _420
REMARK  173  A    between atoms: _420  and  _421
REMARK  174  A    between atoms: _420  and  _423
REMARK  175  A    between atoms: _426  and  _428
REMARK  176  A    between atoms: _428  and  _429
REMARK  177  A    between atoms: _432  and  _434
REMARK  178  A    between atoms: _434  and  _435
REMARK  179  A    between atoms: _434  and  _437
REMARK  180  A    between atoms: _437  and  _438
REMARK  181  A    between atoms: _441  and  _443
REMARK  182  A    between atoms: _443  and  _444
REMARK  183  A    between atoms: _443  and  _446
REMARK  184  A    between atoms: _446  and  _447
REMARK  185  A    between atoms: _453  and  _455
REMARK  186  A    between atoms: _455  and  _456
REMARK  187  A    between atoms: _455  and  _458
REMARK  188  A    between atoms: _458  and  _459
REMARK  189  A    between atoms: _462  and  _464
REMARK  190  A    between atoms: _464  and  _465
REMARK  191  A    between atoms: _468  and  _470
REMARK  192  A    between atoms: _470  and  _471
REMARK  193  A    between atoms: _470  and  _473
REMARK  194  A    between atoms: _473  and  _474
REMARK  195  A    between atoms: _474  and  _475
REMARK  196  A    between atoms: _475  and  _476
REMARK  197  A    between atoms: _485  and  _487
REMARK  198  A    between atoms: _487  and  _488
REMARK  199  A    between atoms: _487  and  _490
REMARK  200  A    between atoms: _490  and  _491
REMARK  201  A    between atoms: _494  and  _496
REMARK  202  A    between atoms: _496  and  _497
REMARK  203  A    between atoms: _496  and  _499
REMARK  204  A    between atoms: _499  and  _500
REMARK  205  A    between atoms: _500  and  _501
REMARK  206  A    between atoms: _503  and  _505
REMARK  207  A    between atoms: _505  and  _506
REMARK  208  A    between atoms: _505  and  _508
REMARK  209  A    between atoms: _508  and  _509
REMARK  210  A    between atoms: _514  and  _515
REMARK  211  A    between atoms: _517  and  _519
REMARK  212  A    between atoms: _519  and  _520
REMARK  213  A    between atoms: _519  and  _522
REMARK  214  A    between atoms: _522  and  _523
REMARK  215  A    between atoms: _526  and  _528
REMARK  216  A    between atoms: _528  and  _529
REMARK  217  A    between atoms: _528  and  _531
REMARK  218  A    between atoms: _531  and  _532
REMARK  219  A    between atoms: _532  and  _533
REMARK  220  A    between atoms: _533  and  _534
REMARK  221  A    between atoms: _534  and  _535
REMARK  222  A    between atoms: _539  and  _541
REMARK  223  A    between atoms: _541  and  _542
REMARK  224  A    between atoms: _541  and  _544
REMARK  225  A    between atoms: _544  and  _545
REMARK  226  A    between atoms: _550  and  _551
REMARK                            x       y       z     vdW  Elec       q    Type
REMARK                         _______ _______ _______ _____ _____    ______ ____
ROOT
ATOM      1  O   HOH     1      16.141  76.180  -4.242  0.00  0.00    +0.000 OA
ENDROOT
TORSDOF 0
REMARK  Name = ../refined-set-2016/3zc5/3zc5_pocket.pdb
REMARK  226 active torsions:
REMARK  status: ('A' for Active; 'I' for Inactive)
REMARK    1  A    between atoms: _1  and  _3
REMARK    2  A    between atoms: _3  and  _4
REMARK    3  A    between atoms: _3  and  _6
REMARK    4  A    between atoms: _9  and  _11
REMARK    5  A    between atoms: _11  and  _12
REMARK    6  A    between atoms: _11  and  _14
REMARK    7  A    between atoms: _14  and  _15
REMARK    8  A    between atoms: _18  and  _20
REMARK    9  A    between atoms: _20  and  _21
REMARK   10  A    between atoms: _23  and  _25
REMARK   11  A    between atoms: _25  and  _26
REMARK   12  A    between atoms: _25  and  _28
REMARK   13  A    between atoms: _28  and  _29
REMARK   14  A    between atoms: _29  and  _30
REMARK   15  A    between atoms: _30  and  _31
REMARK   16  A    between atoms: _40  and  _42
REMARK   17  A    between atoms: _42  and  _43
REMARK   18  A    between atoms: _45  and  _47
REMARK   19  A    between atoms: _47  and  _48
REMARK   20  A    between atoms: _47  and  _50
REMARK   21  A    between atoms: _52  and  _54
REMARK   22  A    between atoms: _54  and  _55
REMARK   23  A    between atoms: _54  and  _57
REMARK   24  A    between atoms: _60  and  _62
REMARK   25  A    between atoms: _62  and  _63
REMARK   26  A    between atoms: _62  and  _65
REMARK   27  A    between atoms: _65  and  _66
REMARK   28  A    between atoms: _71  and  _72
REMARK   29  A    between atoms: _74  and  _76
REMARK   30  A    between atoms: _76  and  _77
REMARK   31  A    between atoms: _76  and  _79
REMARK   32  A    between atoms: _79  and  _80
REMARK   33  A    between atoms: _85  and  _87
REMARK   34  A    between atoms: _87  and  _88
REMARK   35  A    between atoms: _90  and  _92
REMARK   36  A    between atoms: _92  and  _93
REMARK   37  A    between atoms: _92  and  _95
REMARK   38  A    between atoms: _95  and  _96
REMARK   39  A    between atoms: _101  and  _103
REMARK   40  A    between atoms: _103  and  _104
REMARK   41  A    between atoms: _103  and  _106
REMARK   42  A    between atoms: _108  and  _110
REMARK   43  A    between atoms: _110  and  _111
REMARK   44  A    between atoms: _114  and  _116
REMARK   45  A    between atoms: _116  and  _117
REMARK   46  A    between atoms: _116  and  _119
REMARK   47  A    between atoms: _122  and  _124
REMARK   48  A    between atoms: _124  and  _125
REMARK   49  A    between atoms: _124  and  _127
REMARK   50  A    between atoms: _127  and  _128
REMARK   51  A    between atoms: _128  and  _129
REMARK   52  A    between atoms: _129  and  _130
REMARK   53  A    between atoms: _130  and  _131
REMARK   54  A    between atoms: _135  and  _137
REMARK   55  A    between atoms: _137  and  _138
REMARK   56  A    between atoms: _137  and  _140
REMARK   57  A    between atoms: _140  and  _141
REMARK   58  A    between atoms: _143  and  _145
REMARK   59  A    between atoms: _145  and  _146
REMARK   60  A    between atoms: _145  and  _148
REMARK   61  A    between atoms: _148  and  _149
REMARK   62  A    between atoms: _149  and  _150
REMARK   63  A    between atoms: _152  and  _154
REMARK   64  A    between atoms: _154  and  _155
REMARK   65  A    between atoms: _154  and  _157
REMARK   66  A    between atoms: _157  and  _158
REMARK   67  A    between atoms: _161  and  _163
REMARK   68  A    between atoms: _163  and  _164
REMARK   69  A    between atoms: _163  and  _166
REMARK   70  A    between atoms: _166  and  _167
REMARK   71  A    between atoms: _169  and  _171
REMARK   72  A    between atoms: _171  and  _172
REMARK   73  A    between atoms: _171  and  _174
REMARK   74  A    between atoms: _177  and  _179
REMARK   75  A    between atoms: _179  and  _180
REMARK   76  A    between atoms: _179  and  _182
REMARK   77  A    between atoms: _185  and  _187
REMARK   78  A    between atoms: _187  and  _188
REMARK   79  A    between atoms: _187  and  _190
REMARK   80  A    between atoms: _190  and  _191
REMARK   81  A    between atoms: _195  and  _196
REMARK   82  A    between atoms: _201  and  _203
REMARK   83  A    between atoms: _203  and  _204
REMARK   84  A    between atoms: _203  and  _206
REMARK   85  A    between atoms: _206  and  _207
REMARK   86  A    between atoms: _212  and  _213
REMARK   87  A    between atoms: _215  and  _217
REMARK   88  A    between atoms: _217  and  _218
REMARK   89  A    between atoms: _217  and  _220
REMARK   90  A    between atoms: _220  and  _221
REMARK   91  A    between atoms: _221  and  _222
REMARK   92  A    between atoms: _224  and  _226
REMARK   93  A    between atoms: _226  and  _227
REMARK   94  A    between atoms: _226  and  _229
REMARK   95  A    between atoms: _229  and  _230
REMARK   96  A    between atoms: _230  and  _231
REMARK   97  A    between atoms: _231  and  _232
REMARK   98  A    between atoms: _232  and  _233
REMARK   99  A    between atoms: _237  and  _239
REMARK  100  A    between atoms: _239  and  _240
REMARK  101  A    between atoms: _239  and  _242
REMARK  102  A    between atoms: _242  and  _243
REMARK  103  A    between atoms: _248  and  _250
REMARK  104  A    between atoms: _250  and  _251
REMARK  105  A    between atoms: _253  and  _255
REMARK  106  A    between atoms: _255  and  _256
REMARK  107  A    between atoms: _255  and  _258
REMARK  108  A    between atoms: _258  and  _259
REMARK  109  A    between atoms: _262  and  _264
REMARK  110  A    between atoms: _264  and  _265
REMARK  111  A    between atoms: _264  and  _267
REMARK  112  A    between atoms: _267  and  _268
REMARK  113  A    between atoms: _271  and  _273
REMARK  114  A    between atoms: _273  and  _274
REMARK  115  A    between atoms: _273  and  _276
REMARK  116  A    between atoms: _276  and  _277
REMARK  117  A    between atoms: _277  and  _278
REMARK  118  A    between atoms: _278  and  _279
REMARK  119  A    between atoms: _288  and  _290
REMARK  120  A    between atoms: _290  and  _291
REMARK  121  A    between atoms: _290  and  _293
REMARK  122  A    between atoms: _293  and  _294
REMARK  123  A    between atoms: _299  and  _301
REMARK  124  A    between atoms: _301  and  _302
REMARK  125  A    between atoms: _301  and  _304
REMARK  126  A    between atoms: _304  and  _305
REMARK  127  A    between atoms: _311  and  _313
REMARK  128  A    between atoms: _313  and  _314
REMARK  129  A    between atoms: _313  and  _316
REMARK  130  A    between atoms: _316  and  _317
REMARK  131  A    between atoms: _322  and  _324
REMARK  132  A    between atoms: _324  and  _325
REMARK  133  A    between atoms: _324  and  _327
REMARK  134  A    between atoms: _327  and  _328
REMARK  135  A    between atoms: _331  and  _333
REMARK  136  A    between atoms: _333  and  _334
REMARK  137  A    between atoms: _337  and  _339
REMARK  138  A    between atoms: _339  and  _340
REMARK  139  A    between atoms: _343  and  _345
REMARK  140  A    between atoms: _345  and  _346
REMARK  141  A    between atoms: _345  and  _348
REMARK  142  A    between atoms: _348  and  _349
REMARK  143  A    between atoms: _349  and  _350
REMARK  144  A    between atoms: _350  and  _351
REMARK  145  A    between atoms: _360  and  _362
REMARK  146  A    between atoms: _362  and  _363
REMARK  147  A    between atoms: _362  and  _365
REMARK  148  A    between atoms: _365  and  _366
REMARK  149  A    between atoms: _371  and  _373
REMARK  150  A    between atoms: _373  and  _374
REMARK  151  A    between atoms: _373  and  _376
REMARK  152  A    between atoms: _378  and  _380
REMARK  153  A    between atoms: _380  and  _381
REMARK  154  A    between atoms: _380  and  _383
REMARK  155  A    between atoms: _383  and  _384
REMARK  156  A    between atoms: _384  and  _385
REMARK  157  A    between atoms: _387  and  _389
REMARK  158  A    between atoms: _389  and  _390
REMARK  159  A    between atoms: _389  and  _392
REMARK  160  A    between atoms: _392  and  _393
REMARK  161  A    between atoms: _396  and  _398
REMARK  162  A    between atoms: _398  and  _399
REMARK  163  A    between atoms: _398  and  _401
REMARK  164  A    between atoms: _401  and  _402
REMARK  165  A    between atoms: _405  and  _407
REMARK  166  A    between atoms: _407  and  _408
REMARK  167  A    between atoms: _407  and  _410
REMARK  168  A    between atoms: _410  and  _411
REMARK  169  A    between atoms: _411  and  _412
REMARK  170  A    between atoms: _412  and  _413
REMARK  171  A    between atoms: _413  and  _414
REMARK  172  A    between atoms: _418  and  _420
REMARK  173  A    between atoms: _420  and  _421
REMARK  174  A    between atoms: _420  and  _423
REMARK  175  A    between atoms: _426  and  _428
REMARK  176  A    between atoms: _428  and  _429
REMARK  177  A    between atoms: _432  and  _434
REMARK  178  A    between atoms: _434  and  _435
REMARK  179  A    between atoms: _434  and  _437
REMARK  180  A    between atoms: _437  and  _438
REMARK  181  A    between atoms: _441  and  _443
REMARK  182  A    between atoms: _443  and  _444
REMARK  183  A    between atoms: _443  and  _446
REMARK  184  A    between atoms: _446  and  _447
REMARK  185  A    between atoms: _453  and  _455
REMARK  186  A    between atoms: _455  and  _456
REMARK  187  A    between atoms: _455  and  _458
REMARK  188  A    between atoms: _458  and  _459
REMARK  189  A    between atoms: _462  and  _464
REMARK  190  A    between atoms: _464  and  _465
REMARK  191  A    between atoms: _468  and  _470
REMARK  192  A    between atoms: _470  and  _471
REMARK  193  A    between atoms: _470  and  _473
REMARK  194  A    between atoms: _473  and  _474
REMARK  195  A    between atoms: _474  and  _475
REMARK  196  A    between atoms: _475  and  _476
REMARK  197  A    between atoms: _485  and  _487
REMARK  198  A    between atoms: _487  and  _488
REMARK  199  A    between atoms: _487  and  _490
REMARK  200  A    between atoms: _490  and  _491
REMARK  201  A    between atoms: _494  and  _496
REMARK  202  A    between atoms: _496  and  _497
REMARK  203  A    between atoms: _496  and  _499
REMARK  204  A    between atoms: _499  and  _500
REMARK  205  A    between atoms: _500  and  _501
REMARK  206  A    between atoms: _503  and  _505
REMARK  207  A    between atoms: _505  and  _506
REMARK  208  A    between atoms: _505  and  _508
REMARK  209  A    between atoms: _508  and  _509
REMARK  210  A    between atoms: _514  and  _515
REMARK  211  A    between atoms: _517  and  _519
REMARK  212  A    between atoms: _519  and  _520
REMARK  213  A    between atoms: _519  and  _522
REMARK  214  A    between atoms: _522  and  _523
REMARK  215  A    between atoms: _526  and  _528
REMARK  216  A    between atoms: _528  and  _529
REMARK  217  A    between atoms: _528  and  _531
REMARK  218  A    between atoms: _531  and  _532
REMARK  219  A    between atoms: _532  and  _533
REMARK  220  A    between atoms: _533  and  _534
REMARK  221  A    between atoms: _534  and  _535
REMARK  222  A    between atoms: _539  and  _541
REMARK  223  A    between atoms: _541  and  _542
REMARK  224  A    between atoms: _541  and  _544
REMARK  225  A    between atoms: _544  and  _545
REMARK  226  A    between atoms: _550  and  _551
REMARK                            x       y       z     vdW  Elec       q    Type
REMARK                         _______ _______ _______ _____ _____    ______ ____
ROOT
ATOM      1  O   HOH     1      18.305  75.295  -2.781  0.00  0.00    +0.000 OA
ENDROOT
TORSDOF 0
REMARK  Name = ../refined-set-2016/3zc5/3zc5_pocket.pdb
REMARK  226 active torsions:
REMARK  status: ('A' for Active; 'I' for Inactive)
REMARK    1  A    between atoms: _1  and  _3
REMARK    2  A    between atoms: _3  and  _4
REMARK    3  A    between atoms: _3  and  _6
REMARK    4  A    between atoms: _9  and  _11
REMARK    5  A    between atoms: _11  and  _12
REMARK    6  A    between atoms: _11  and  _14
REMARK    7  A    between atoms: _14  and  _15
REMARK    8  A    between atoms: _18  and  _20
REMARK    9  A    between atoms: _20  and  _21
REMARK   10  A    between atoms: _23  and  _25
REMARK   11  A    between atoms: _25  and  _26
REMARK   12  A    between atoms: _25  and  _28
REMARK   13  A    between atoms: _28  and  _29
REMARK   14  A    between atoms: _29  and  _30
REMARK   15  A    between atoms: _30  and  _31
REMARK   16  A    between atoms: _40  and  _42
REMARK   17  A    between atoms: _42  and  _43
REMARK   18  A    between atoms: _45  and  _47
REMARK   19  A    between atoms: _47  and  _48
REMARK   20  A    between atoms: _47  and  _50
REMARK   21  A    between atoms: _52  and  _54
REMARK   22  A    between atoms: _54  and  _55
REMARK   23  A    between atoms: _54  and  _57
REMARK   24  A    between atoms: _60  and  _62
REMARK   25  A    between atoms: _62  and  _63
REMARK   26  A    between atoms: _62  and  _65
REMARK   27  A    between atoms: _65  and  _66
REMARK   28  A    between atoms: _71  and  _72
REMARK   29  A    between atoms: _74  and  _76
REMARK   30  A    between atoms: _76  and  _77
REMARK   31  A    between atoms: _76  and  _79
REMARK   32  A    between atoms: _79  and  _80
REMARK   33  A    between atoms: _85  and  _87
REMARK   34  A    between atoms: _87  and  _88
REMARK   35  A    between atoms: _90  and  _92
REMARK   36  A    between atoms: _92  and  _93
REMARK   37  A    between atoms: _92  and  _95
REMARK   38  A    between atoms: _95  and  _96
REMARK   39  A    between atoms: _101  and  _103
REMARK   40  A    between atoms: _103  and  _104
REMARK   41  A    between atoms: _103  and  _106
REMARK   42  A    between atoms: _108  and  _110
REMARK   43  A    between atoms: _110  and  _111
REMARK   44  A    between atoms: _114  and  _116
REMARK   45  A    between atoms: _116  and  _117
REMARK   46  A    between atoms: _116  and  _119
REMARK   47  A    between atoms: _122  and  _124
REMARK   48  A    between atoms: _124  and  _125
REMARK   49  A    between atoms: _124  and  _127
REMARK   50  A    between atoms: _127  and  _128
REMARK   51  A    between atoms: _128  and  _129
REMARK   52  A    between atoms: _129  and  _130
REMARK   53  A    between atoms: _130  and  _131
REMARK   54  A    between atoms: _135  and  _137
REMARK   55  A    between atoms: _137  and  _138
REMARK   56  A    between atoms: _137  and  _140
REMARK   57  A    between atoms: _140  and  _141
REMARK   58  A    between atoms: _143  and  _145
REMARK   59  A    between atoms: _145  and  _146
REMARK   60  A    between atoms: _145  and  _148
REMARK   61  A    between atoms: _148  and  _149
REMARK   62  A    between atoms: _149  and  _150
REMARK   63  A    between atoms: _152  and  _154
REMARK   64  A    between atoms: _154  and  _155
REMARK   65  A    between atoms: _154  and  _157
REMARK   66  A    between atoms: _157  and  _158
REMARK   67  A    between atoms: _161  and  _163
REMARK   68  A    between atoms: _163  and  _164
REMARK   69  A    between atoms: _163  and  _166
REMARK   70  A    between atoms: _166  and  _167
REMARK   71  A    between atoms: _169  and  _171
REMARK   72  A    between atoms: _171  and  _172
REMARK   73  A    between atoms: _171  and  _174
REMARK   74  A    between atoms: _177  and  _179
REMARK   75  A    between atoms: _179  and  _180
REMARK   76  A    between atoms: _179  and  _182
REMARK   77  A    between atoms: _185  and  _187
REMARK   78  A    between atoms: _187  and  _188
REMARK   79  A    between atoms: _187  and  _190
REMARK   80  A    between atoms: _190  and  _191
REMARK   81  A    between atoms: _195  and  _196
REMARK   82  A    between atoms: _201  and  _203
REMARK   83  A    between atoms: _203  and  _204
REMARK   84  A    between atoms: _203  and  _206
REMARK   85  A    between atoms: _206  and  _207
REMARK   86  A    between atoms: _212  and  _213
REMARK   87  A    between atoms: _215  and  _217
REMARK   88  A    between atoms: _217  and  _218
REMARK   89  A    between atoms: _217  and  _220
REMARK   90  A    between atoms: _220  and  _221
REMARK   91  A    between atoms: _221  and  _222
REMARK   92  A    between atoms: _224  and  _226
REMARK   93  A    between atoms: _226  and  _227
REMARK   94  A    between atoms: _226  and  _229
REMARK   95  A    between atoms: _229  and  _230
REMARK   96  A    between atoms: _230  and  _231
REMARK   97  A    between atoms: _231  and  _232
REMARK   98  A    between atoms: _232  and  _233
REMARK   99  A    between atoms: _237  and  _239
REMARK  100  A    between atoms: _239  and  _240
REMARK  101  A    between atoms: _239  and  _242
REMARK  102  A    between atoms: _242  and  _243
REMARK  103  A    between atoms: _248  and  _250
REMARK  104  A    between atoms: _250  and  _251
REMARK  105  A    between atoms: _253  and  _255
REMARK  106  A    between atoms: _255  and  _256
REMARK  107  A    between atoms: _255  and  _258
REMARK  108  A    between atoms: _258  and  _259
REMARK  109  A    between atoms: _262  and  _264
REMARK  110  A    between atoms: _264  and  _265
REMARK  111  A    between atoms: _264  and  _267
REMARK  112  A    between atoms: _267  and  _268
REMARK  113  A    between atoms: _271  and  _273
REMARK  114  A    between atoms: _273  and  _274
REMARK  115  A    between atoms: _273  and  _276
REMARK  116  A    between atoms: _276  and  _277
REMARK  117  A    between atoms: _277  and  _278
REMARK  118  A    between atoms: _278  and  _279
REMARK  119  A    between atoms: _288  and  _290
REMARK  120  A    between atoms: _290  and  _291
REMARK  121  A    between atoms: _290  and  _293
REMARK  122  A    between atoms: _293  and  _294
REMARK  123  A    between atoms: _299  and  _301
REMARK  124  A    between atoms: _301  and  _302
REMARK  125  A    between atoms: _301  and  _304
REMARK  126  A    between atoms: _304  and  _305
REMARK  127  A    between atoms: _311  and  _313
REMARK  128  A    between atoms: _313  and  _314
REMARK  129  A    between atoms: _313  and  _316
REMARK  130  A    between atoms: _316  and  _317
REMARK  131  A    between atoms: _322  and  _324
REMARK  132  A    between atoms: _324  and  _325
REMARK  133  A    between atoms: _324  and  _327
REMARK  134  A    between atoms: _327  and  _328
REMARK  135  A    between atoms: _331  and  _333
REMARK  136  A    between atoms: _333  and  _334
REMARK  137  A    between atoms: _337  and  _339
REMARK  138  A    between atoms: _339  and  _340
REMARK  139  A    between atoms: _343  and  _345
REMARK  140  A    between atoms: _345  and  _346
REMARK  141  A    between atoms: _345  and  _348
REMARK  142  A    between atoms: _348  and  _349
REMARK  143  A    between atoms: _349  and  _350
REMARK  144  A    between atoms: _350  and  _351
REMARK  145  A    between atoms: _360  and  _362
REMARK  146  A    between atoms: _362  and  _363
REMARK  147  A    between atoms: _362  and  _365
REMARK  148  A    between atoms: _365  and  _366
REMARK  149  A    between atoms: _371  and  _373
REMARK  150  A    between atoms: _373  and  _374
REMARK  151  A    between atoms: _373  and  _376
REMARK  152  A    between atoms: _378  and  _380
REMARK  153  A    between atoms: _380  and  _381
REMARK  154  A    between atoms: _380  and  _383
REMARK  155  A    between atoms: _383  and  _384
REMARK  156  A    between atoms: _384  and  _385
REMARK  157  A    between atoms: _387  and  _389
REMARK  158  A    between atoms: _389  and  _390
REMARK  159  A    between atoms: _389  and  _392
REMARK  160  A    between atoms: _392  and  _393
REMARK  161  A    between atoms: _396  and  _398
REMARK  162  A    between atoms: _398  and  _399
REMARK  163  A    between atoms: _398  and  _401
REMARK  164  A    between atoms: _401  and  _402
REMARK  165  A    between atoms: _405  and  _407
REMARK  166  A    between atoms: _407  and  _408
REMARK  167  A    between atoms: _407  and  _410
REMARK  168  A    between atoms: _410  and  _411
REMARK  169  A    between atoms: _411  and  _412
REMARK  170  A    between atoms: _412  and  _413
REMARK  171  A    between atoms: _413  and  _414
REMARK  172  A    between atoms: _418  and  _420
REMARK  173  A    between atoms: _420  and  _421
REMARK  174  A    between atoms: _420  and  _423
REMARK  175  A    between atoms: _426  and  _428
REMARK  176  A    between atoms: _428  and  _429
REMARK  177  A    between atoms: _432  and  _434
REMARK  178  A    between atoms: _434  and  _435
REMARK  179  A    between atoms: _434  and  _437
REMARK  180  A    between atoms: _437  and  _438
REMARK  181  A    between atoms: _441  and  _443
REMARK  182  A    between atoms: _443  and  _444
REMARK  183  A    between atoms: _443  and  _446
REMARK  184  A    between atoms: _446  and  _447
REMARK  185  A    between atoms: _453  and  _455
REMARK  186  A    between atoms: _455  and  _456
REMARK  187  A    between atoms: _455  and  _458
REMARK  188  A    between atoms: _458  and  _459
REMARK  189  A    between atoms: _462  and  _464
REMARK  190  A    between atoms: _464  and  _465
REMARK  191  A    between atoms: _468  and  _470
REMARK  192  A    between atoms: _470  and  _471
REMARK  193  A    between atoms: _470  and  _473
REMARK  194  A    between atoms: _473  and  _474
REMARK  195  A    between atoms: _474  and  _475
REMARK  196  A    between atoms: _475  and  _476
REMARK  197  A    between atoms: _485  and  _487
REMARK  198  A    between atoms: _487  and  _488
REMARK  199  A    between atoms: _487  and  _490
REMARK  200  A    between atoms: _490  and  _491
REMARK  201  A    between atoms: _494  and  _496
REMARK  202  A    between atoms: _496  and  _497
REMARK  203  A    between atoms: _496  and  _499
REMARK  204  A    between atoms: _499  and  _500
REMARK  205  A    between atoms: _500  and  _501
REMARK  206  A    between atoms: _503  and  _505
REMARK  207  A    between atoms: _505  and  _506
REMARK  208  A    between atoms: _505  and  _508
REMARK  209  A    between atoms: _508  and  _509
REMARK  210  A    between atoms: _514  and  _515
REMARK  211  A    between atoms: _517  and  _519
REMARK  212  A    between atoms: _519  and  _520
REMARK  213  A    between atoms: _519  and  _522
REMARK  214  A    between atoms: _522  and  _523
REMARK  215  A    between atoms: _526  and  _528
REMARK  216  A    between atoms: _528  and  _529
REMARK  217  A    between atoms: _528  and  _531
REMARK  218  A    between atoms: _531  and  _532
REMARK  219  A    between atoms: _532  and  _533
REMARK  220  A    between atoms: _533  and  _534
REMARK  221  A    between atoms: _534  and  _535
REMARK  222  A    between atoms: _539  and  _541
REMARK  223  A    between atoms: _541  and  _542
REMARK  224  A    between atoms: _541  and  _544
REMARK  225  A    between atoms: _544  and  _545
REMARK  226  A    between atoms: _550  and  _551
REMARK                            x       y       z     vdW  Elec       q    Type
REMARK                         _______ _______ _______ _____ _____    ______ ____
ROOT
ATOM      1  O   HOH     1      15.256  75.618  -0.101  0.00  0.00    +0.000 OA
ENDROOT
TORSDOF 0
REMARK  Name = ../refined-set-2016/3zc5/3zc5_pocket.pdb
REMARK  226 active torsions:
REMARK  status: ('A' for Active; 'I' for Inactive)
REMARK    1  A    between atoms: _1  and  _3
REMARK    2  A    between atoms: _3  and  _4
REMARK    3  A    between atoms: _3  and  _6
REMARK    4  A    between atoms: _9  and  _11
REMARK    5  A    between atoms: _11  and  _12
REMARK    6  A    between atoms: _11  and  _14
REMARK    7  A    between atoms: _14  and  _15
REMARK    8  A    between atoms: _18  and  _20
REMARK    9  A    between atoms: _20  and  _21
REMARK   10  A    between atoms: _23  and  _25
REMARK   11  A    between atoms: _25  and  _26
REMARK   12  A    between atoms: _25  and  _28
REMARK   13  A    between atoms: _28  and  _29
REMARK   14  A    between atoms: _29  and  _30
REMARK   15  A    between atoms: _30  and  _31
REMARK   16  A    between atoms: _40  and  _42
REMARK   17  A    between atoms: _42  and  _43
REMARK   18  A    between atoms: _45  and  _47
REMARK   19  A    between atoms: _47  and  _48
REMARK   20  A    between atoms: _47  and  _50
REMARK   21  A    between atoms: _52  and  _54
REMARK   22  A    between atoms: _54  and  _55
REMARK   23  A    between atoms: _54  and  _57
REMARK   24  A    between atoms: _60  and  _62
REMARK   25  A    between atoms: _62  and  _63
REMARK   26  A    between atoms: _62  and  _65
REMARK   27  A    between atoms: _65  and  _66
REMARK   28  A    between atoms: _71  and  _72
REMARK   29  A    between atoms: _74  and  _76
REMARK   30  A    between atoms: _76  and  _77
REMARK   31  A    between atoms: _76  and  _79
REMARK   32  A    between atoms: _79  and  _80
REMARK   33  A    between atoms: _85  and  _87
REMARK   34  A    between atoms: _87  and  _88
REMARK   35  A    between atoms: _90  and  _92
REMARK   36  A    between atoms: _92  and  _93
REMARK   37  A    between atoms: _92  and  _95
REMARK   38  A    between atoms: _95  and  _96
REMARK   39  A    between atoms: _101  and  _103
REMARK   40  A    between atoms: _103  and  _104
REMARK   41  A    between atoms: _103  and  _106
REMARK   42  A    between atoms: _108  and  _110
REMARK   43  A    between atoms: _110  and  _111
REMARK   44  A    between atoms: _114  and  _116
REMARK   45  A    between atoms: _116  and  _117
REMARK   46  A    between atoms: _116  and  _119
REMARK   47  A    between atoms: _122  and  _124
REMARK   48  A    between atoms: _124  and  _125
REMARK   49  A    between atoms: _124  and  _127
REMARK   50  A    between atoms: _127  and  _128
REMARK   51  A    between atoms: _128  and  _129
REMARK   52  A    between atoms: _129  and  _130
REMARK   53  A    between atoms: _130  and  _131
REMARK   54  A    between atoms: _135  and  _137
REMARK   55  A    between atoms: _137  and  _138
REMARK   56  A    between atoms: _137  and  _140
REMARK   57  A    between atoms: _140  and  _141
REMARK   58  A    between atoms: _143  and  _145
REMARK   59  A    between atoms: _145  and  _146
REMARK   60  A    between atoms: _145  and  _148
REMARK   61  A    between atoms: _148  and  _149
REMARK   62  A    between atoms: _149  and  _150
REMARK   63  A    between atoms: _152  and  _154
REMARK   64  A    between atoms: _154  and  _155
REMARK   65  A    between atoms: _154  and  _157
REMARK   66  A    between atoms: _157  and  _158
REMARK   67  A    between atoms: _161  and  _163
REMARK   68  A    between atoms: _163  and  _164
REMARK   69  A    between atoms: _163  and  _166
REMARK   70  A    between atoms: _166  and  _167
REMARK   71  A    between atoms: _169  and  _171
REMARK   72  A    between atoms: _171  and  _172
REMARK   73  A    between atoms: _171  and  _174
REMARK   74  A    between atoms: _177  and  _179
REMARK   75  A    between atoms: _179  and  _180
REMARK   76  A    between atoms: _179  and  _182
REMARK   77  A    between atoms: _185  and  _187
REMARK   78  A    between atoms: _187  and  _188
REMARK   79  A    between atoms: _187  and  _190
REMARK   80  A    between atoms: _190  and  _191
REMARK   81  A    between atoms: _195  and  _196
REMARK   82  A    between atoms: _201  and  _203
REMARK   83  A    between atoms: _203  and  _204
REMARK   84  A    between atoms: _203  and  _206
REMARK   85  A    between atoms: _206  and  _207
REMARK   86  A    between atoms: _212  and  _213
REMARK   87  A    between atoms: _215  and  _217
REMARK   88  A    between atoms: _217  and  _218
REMARK   89  A    between atoms: _217  and  _220
REMARK   90  A    between atoms: _220  and  _221
REMARK   91  A    between atoms: _221  and  _222
REMARK   92  A    between atoms: _224  and  _226
REMARK   93  A    between atoms: _226  and  _227
REMARK   94  A    between atoms: _226  and  _229
REMARK   95  A    between atoms: _229  and  _230
REMARK   96  A    between atoms: _230  and  _231
REMARK   97  A    between atoms: _231  and  _232
REMARK   98  A    between atoms: _232  and  _233
REMARK   99  A    between atoms: _237  and  _239
REMARK  100  A    between atoms: _239  and  _240
REMARK  101  A    between atoms: _239  and  _242
REMARK  102  A    between atoms: _242  and  _243
REMARK  103  A    between atoms: _248  and  _250
REMARK  104  A    between atoms: _250  and  _251
REMARK  105  A    between atoms: _253  and  _255
REMARK  106  A    between atoms: _255  and  _256
REMARK  107  A    between atoms: _255  and  _258
REMARK  108  A    between atoms: _258  and  _259
REMARK  109  A    between atoms: _262  and  _264
REMARK  110  A    between atoms: _264  and  _265
REMARK  111  A    between atoms: _264  and  _267
REMARK  112  A    between atoms: _267  and  _268
REMARK  113  A    between atoms: _271  and  _273
REMARK  114  A    between atoms: _273  and  _274
REMARK  115  A    between atoms: _273  and  _276
REMARK  116  A    between atoms: _276  and  _277
REMARK  117  A    between atoms: _277  and  _278
REMARK  118  A    between atoms: _278  and  _279
REMARK  119  A    between atoms: _288  and  _290
REMARK  120  A    between atoms: _290  and  _291
REMARK  121  A    between atoms: _290  and  _293
REMARK  122  A    between atoms: _293  and  _294
REMARK  123  A    between atoms: _299  and  _301
REMARK  124  A    between atoms: _301  and  _302
REMARK  125  A    between atoms: _301  and  _304
REMARK  126  A    between atoms: _304  and  _305
REMARK  127  A    between atoms: _311  and  _313
REMARK  128  A    between atoms: _313  and  _314
REMARK  129  A    between atoms: _313  and  _316
REMARK  130  A    between atoms: _316  and  _317
REMARK  131  A    between atoms: _322  and  _324
REMARK  132  A    between atoms: _324  and  _325
REMARK  133  A    between atoms: _324  and  _327
REMARK  134  A    between atoms: _327  and  _328
REMARK  135  A    between atoms: _331  and  _333
REMARK  136  A    between atoms: _333  and  _334
REMARK  137  A    between atoms: _337  and  _339
REMARK  138  A    between atoms: _339  and  _340
REMARK  139  A    between atoms: _343  and  _345
REMARK  140  A    between atoms: _345  and  _346
REMARK  141  A    between atoms: _345  and  _348
REMARK  142  A    between atoms: _348  and  _349
REMARK  143  A    between atoms: _349  and  _350
REMARK  144  A    between atoms: _350  and  _351
REMARK  145  A    between atoms: _360  and  _362
REMARK  146  A    between atoms: _362  and  _363
REMARK  147  A    between atoms: _362  and  _365
REMARK  148  A    between atoms: _365  and  _366
REMARK  149  A    between atoms: _371  and  _373
REMARK  150  A    between atoms: _373  and  _374
REMARK  151  A    between atoms: _373  and  _376
REMARK  152  A    between atoms: _378  and  _380
REMARK  153  A    between atoms: _380  and  _381
REMARK  154  A    between atoms: _380  and  _383
REMARK  155  A    between atoms: _383  and  _384
REMARK  156  A    between atoms: _384  and  _385
REMARK  157  A    between atoms: _387  and  _389
REMARK  158  A    between atoms: _389  and  _390
REMARK  159  A    between atoms: _389  and  _392
REMARK  160  A    between atoms: _392  and  _393
REMARK  161  A    between atoms: _396  and  _398
REMARK  162  A    between atoms: _398  and  _399
REMARK  163  A    between atoms: _398  and  _401
REMARK  164  A    between atoms: _401  and  _402
REMARK  165  A    between atoms: _405  and  _407
REMARK  166  A    between atoms: _407  and  _408
REMARK  167  A    between atoms: _407  and  _410
REMARK  168  A    between atoms: _410  and  _411
REMARK  169  A    between atoms: _411  and  _412
REMARK  170  A    between atoms: _412  and  _413
REMARK  171  A    between atoms: _413  and  _414
REMARK  172  A    between atoms: _418  and  _420
REMARK  173  A    between atoms: _420  and  _421
REMARK  174  A    between atoms: _420  and  _423
REMARK  175  A    between atoms: _426  and  _428
REMARK  176  A    between atoms: _428  and  _429
REMARK  177  A    between atoms: _432  and  _434
REMARK  178  A    between atoms: _434  and  _435
REMARK  179  A    between atoms: _434  and  _437
REMARK  180  A    between atoms: _437  and  _438
REMARK  181  A    between atoms: _441  and  _443
REMARK  182  A    between atoms: _443  and  _444
REMARK  183  A    between atoms: _443  and  _446
REMARK  184  A    between atoms: _446  and  _447
REMARK  185  A    between atoms: _453  and  _455
REMARK  186  A    between atoms: _455  and  _456
REMARK  187  A    between atoms: _455  and  _458
REMARK  188  A    between atoms: _458  and  _459
REMARK  189  A    between atoms: _462  and  _464
REMARK  190  A    between atoms: _464  and  _465
REMARK  191  A    between atoms: _468  and  _470
REMARK  192  A    between atoms: _470  and  _471
REMARK  193  A    between atoms: _470  and  _473
REMARK  194  A    between atoms: _473  and  _474
REMARK  195  A    between atoms: _474  and  _475
REMARK  196  A    between atoms: _475  and  _476
REMARK  197  A    between atoms: _485  and  _487
REMARK  198  A    between atoms: _487  and  _488
REMARK  199  A    between atoms: _487  and  _490
REMARK  200  A    between atoms: _490  and  _491
REMARK  201  A    between atoms: _494  and  _496
REMARK  202  A    between atoms: _496  and  _497
REMARK  203  A    between atoms: _496  and  _499
REMARK  204  A    between atoms: _499  and  _500
REMARK  205  A    between atoms: _500  and  _501
REMARK  206  A    between atoms: _503  and  _505
REMARK  207  A    between atoms: _505  and  _506
REMARK  208  A    between atoms: _505  and  _508
REMARK  209  A    between atoms: _508  and  _509
REMARK  210  A    between atoms: _514  and  _515
REMARK  211  A    between atoms: _517  and  _519
REMARK  212  A    between atoms: _519  and  _520
REMARK  213  A    between atoms: _519  and  _522
REMARK  214  A    between atoms: _522  and  _523
REMARK  215  A    between atoms: _526  and  _528
REMARK  216  A    between atoms: _528  and  _529
REMARK  217  A    between atoms: _528  and  _531
REMARK  218  A    between atoms: _531  and  _532
REMARK  219  A    between atoms: _532  and  _533
REMARK  220  A    between atoms: _533  and  _534
REMARK  221  A    between atoms: _534  and  _535
REMARK  222  A    between atoms: _539  and  _541
REMARK  223  A    between atoms: _541  and  _542
REMARK  224  A    between atoms: _541  and  _544
REMARK  225  A    between atoms: _544  and  _545
REMARK  226  A    between atoms: _550  and  _551
REMARK                            x       y       z     vdW  Elec       q    Type
REMARK                         _______ _______ _______ _____ _____    ______ ____
ROOT
ATOM      1  O   HOH     1      22.039  77.906  -5.496  0.00  0.00    +0.000 OA
ENDROOT
TORSDOF 0
REMARK  Name = ../refined-set-2016/3zc5/3zc5_pocket.pdb
REMARK  226 active torsions:
REMARK  status: ('A' for Active; 'I' for Inactive)
REMARK    1  A    between atoms: _1  and  _3
REMARK    2  A    between atoms: _3  and  _4
REMARK    3  A    between atoms: _3  and  _6
REMARK    4  A    between atoms: _9  and  _11
REMARK    5  A    between atoms: _11  and  _12
REMARK    6  A    between atoms: _11  and  _14
REMARK    7  A    between atoms: _14  and  _15
REMARK    8  A    between atoms: _18  and  _20
REMARK    9  A    between atoms: _20  and  _21
REMARK   10  A    between atoms: _23  and  _25
REMARK   11  A    between atoms: _25  and  _26
REMARK   12  A    between atoms: _25  and  _28
REMARK   13  A    between atoms: _28  and  _29
REMARK   14  A    between atoms: _29  and  _30
REMARK   15  A    between atoms: _30  and  _31
REMARK   16  A    between atoms: _40  and  _42
REMARK   17  A    between atoms: _42  and  _43
REMARK   18  A    between atoms: _45  and  _47
REMARK   19  A    between atoms: _47  and  _48
REMARK   20  A    between atoms: _47  and  _50
REMARK   21  A    between atoms: _52  and  _54
REMARK   22  A    between atoms: _54  and  _55
REMARK   23  A    between atoms: _54  and  _57
REMARK   24  A    between atoms: _60  and  _62
REMARK   25  A    between atoms: _62  and  _63
REMARK   26  A    between atoms: _62  and  _65
REMARK   27  A    between atoms: _65  and  _66
REMARK   28  A    between atoms: _71  and  _72
REMARK   29  A    between atoms: _74  and  _76
REMARK   30  A    between atoms: _76  and  _77
REMARK   31  A    between atoms: _76  and  _79
REMARK   32  A    between atoms: _79  and  _80
REMARK   33  A    between atoms: _85  and  _87
REMARK   34  A    between atoms: _87  and  _88
REMARK   35  A    between atoms: _90  and  _92
REMARK   36  A    between atoms: _92  and  _93
REMARK   37  A    between atoms: _92  and  _95
REMARK   38  A    between atoms: _95  and  _96
REMARK   39  A    between atoms: _101  and  _103
REMARK   40  A    between atoms: _103  and  _104
REMARK   41  A    between atoms: _103  and  _106
REMARK   42  A    between atoms: _108  and  _110
REMARK   43  A    between atoms: _110  and  _111
REMARK   44  A    between atoms: _114  and  _116
REMARK   45  A    between atoms: _116  and  _117
REMARK   46  A    between atoms: _116  and  _119
REMARK   47  A    between atoms: _122  and  _124
REMARK   48  A    between atoms: _124  and  _125
REMARK   49  A    between atoms: _124  and  _127
REMARK   50  A    between atoms: _127  and  _128
REMARK   51  A    between atoms: _128  and  _129
REMARK   52  A    between atoms: _129  and  _130
REMARK   53  A    between atoms: _130  and  _131
REMARK   54  A    between atoms: _135  and  _137
REMARK   55  A    between atoms: _137  and  _138
REMARK   56  A    between atoms: _137  and  _140
REMARK   57  A    between atoms: _140  and  _141
REMARK   58  A    between atoms: _143  and  _145
REMARK   59  A    between atoms: _145  and  _146
REMARK   60  A    between atoms: _145  and  _148
REMARK   61  A    between atoms: _148  and  _149
REMARK   62  A    between atoms: _149  and  _150
REMARK   63  A    between atoms: _152  and  _154
REMARK   64  A    between atoms: _154  and  _155
REMARK   65  A    between atoms: _154  and  _157
REMARK   66  A    between atoms: _157  and  _158
REMARK   67  A    between atoms: _161  and  _163
REMARK   68  A    between atoms: _163  and  _164
REMARK   69  A    between atoms: _163  and  _166
REMARK   70  A    between atoms: _166  and  _167
REMARK   71  A    between atoms: _169  and  _171
REMARK   72  A    between atoms: _171  and  _172
REMARK   73  A    between atoms: _171  and  _174
REMARK   74  A    between atoms: _177  and  _179
REMARK   75  A    between atoms: _179  and  _180
REMARK   76  A    between atoms: _179  and  _182
REMARK   77  A    between atoms: _185  and  _187
REMARK   78  A    between atoms: _187  and  _188
REMARK   79  A    between atoms: _187  and  _190
REMARK   80  A    between atoms: _190  and  _191
REMARK   81  A    between atoms: _195  and  _196
REMARK   82  A    between atoms: _201  and  _203
REMARK   83  A    between atoms: _203  and  _204
REMARK   84  A    between atoms: _203  and  _206
REMARK   85  A    between atoms: _206  and  _207
REMARK   86  A    between atoms: _212  and  _213
REMARK   87  A    between atoms: _215  and  _217
REMARK   88  A    between atoms: _217  and  _218
REMARK   89  A    between atoms: _217  and  _220
REMARK   90  A    between atoms: _220  and  _221
REMARK   91  A    between atoms: _221  and  _222
REMARK   92  A    between atoms: _224  and  _226
REMARK   93  A    between atoms: _226  and  _227
REMARK   94  A    between atoms: _226  and  _229
REMARK   95  A    between atoms: _229  and  _230
REMARK   96  A    between atoms: _230  and  _231
REMARK   97  A    between atoms: _231  and  _232
REMARK   98  A    between atoms: _232  and  _233
REMARK   99  A    between atoms: _237  and  _239
REMARK  100  A    between atoms: _239  and  _240
REMARK  101  A    between atoms: _239  and  _242
REMARK  102  A    between atoms: _242  and  _243
REMARK  103  A    between atoms: _248  and  _250
REMARK  104  A    between atoms: _250  and  _251
REMARK  105  A    between atoms: _253  and  _255
REMARK  106  A    between atoms: _255  and  _256
REMARK  107  A    between atoms: _255  and  _258
REMARK  108  A    between atoms: _258  and  _259
REMARK  109  A    between atoms: _262  and  _264
REMARK  110  A    between atoms: _264  and  _265
REMARK  111  A    between atoms: _264  and  _267
REMARK  112  A    between atoms: _267  and  _268
REMARK  113  A    between atoms: _271  and  _273
REMARK  114  A    between atoms: _273  and  _274
REMARK  115  A    between atoms: _273  and  _276
REMARK  116  A    between atoms: _276  and  _277
REMARK  117  A    between atoms: _277  and  _278
REMARK  118  A    between atoms: _278  and  _279
REMARK  119  A    between atoms: _288  and  _290
REMARK  120  A    between atoms: _290  and  _291
REMARK  121  A    between atoms: _290  and  _293
REMARK  122  A    between atoms: _293  and  _294
REMARK  123  A    between atoms: _299  and  _301
REMARK  124  A    between atoms: _301  and  _302
REMARK  125  A    between atoms: _301  and  _304
REMARK  126  A    between atoms: _304  and  _305
REMARK  127  A    between atoms: _311  and  _313
REMARK  128  A    between atoms: _313  and  _314
REMARK  129  A    between atoms: _313  and  _316
REMARK  130  A    between atoms: _316  and  _317
REMARK  131  A    between atoms: _322  and  _324
REMARK  132  A    between atoms: _324  and  _325
REMARK  133  A    between atoms: _324  and  _327
REMARK  134  A    between atoms: _327  and  _328
REMARK  135  A    between atoms: _331  and  _333
REMARK  136  A    between atoms: _333  and  _334
REMARK  137  A    between atoms: _337  and  _339
REMARK  138  A    between atoms: _339  and  _340
REMARK  139  A    between atoms: _343  and  _345
REMARK  140  A    between atoms: _345  and  _346
REMARK  141  A    between atoms: _345  and  _348
REMARK  142  A    between atoms: _348  and  _349
REMARK  143  A    between atoms: _349  and  _350
REMARK  144  A    between atoms: _350  and  _351
REMARK  145  A    between atoms: _360  and  _362
REMARK  146  A    between atoms: _362  and  _363
REMARK  147  A    between atoms: _362  and  _365
REMARK  148  A    between atoms: _365  and  _366
REMARK  149  A    between atoms: _371  and  _373
REMARK  150  A    between atoms: _373  and  _374
REMARK  151  A    between atoms: _373  and  _376
REMARK  152  A    between atoms: _378  and  _380
REMARK  153  A    between atoms: _380  and  _381
REMARK  154  A    between atoms: _380  and  _383
REMARK  155  A    between atoms: _383  and  _384
REMARK  156  A    between atoms: _384  and  _385
REMARK  157  A    between atoms: _387  and  _389
REMARK  158  A    between atoms: _389  and  _390
REMARK  159  A    between atoms: _389  and  _392
REMARK  160  A    between atoms: _392  and  _393
REMARK  161  A    between atoms: _396  and  _398
REMARK  162  A    between atoms: _398  and  _399
REMARK  163  A    between atoms: _398  and  _401
REMARK  164  A    between atoms: _401  and  _402
REMARK  165  A    between atoms: _405  and  _407
REMARK  166  A    between atoms: _407  and  _408
REMARK  167  A    between atoms: _407  and  _410
REMARK  168  A    between atoms: _410  and  _411
REMARK  169  A    between atoms: _411  and  _412
REMARK  170  A    between atoms: _412  and  _413
REMARK  171  A    between atoms: _413  and  _414
REMARK  172  A    between atoms: _418  and  _420
REMARK  173  A    between atoms: _420  and  _421
REMARK  174  A    between atoms: _420  and  _423
REMARK  175  A    between atoms: _426  and  _428
REMARK  176  A    between atoms: _428  and  _429
REMARK  177  A    between atoms: _432  and  _434
REMARK  178  A    between atoms: _434  and  _435
REMARK  179  A    between atoms: _434  and  _437
REMARK  180  A    between atoms: _437  and  _438
REMARK  181  A    between atoms: _441  and  _443
REMARK  182  A    between atoms: _443  and  _444
REMARK  183  A    between atoms: _443  and  _446
REMARK  184  A    between atoms: _446  and  _447
REMARK  185  A    between atoms: _453  and  _455
REMARK  186  A    between atoms: _455  and  _456
REMARK  187  A    between atoms: _455  and  _458
REMARK  188  A    between atoms: _458  and  _459
REMARK  189  A    between atoms: _462  and  _464
REMARK  190  A    between atoms: _464  and  _465
REMARK  191  A    between atoms: _468  and  _470
REMARK  192  A    between atoms: _470  and  _471
REMARK  193  A    between atoms: _470  and  _473
REMARK  194  A    between atoms: _473  and  _474
REMARK  195  A    between atoms: _474  and  _475
REMARK  196  A    between atoms: _475  and  _476
REMARK  197  A    between atoms: _485  and  _487
REMARK  198  A    between atoms: _487  and  _488
REMARK  199  A    between atoms: _487  and  _490
REMARK  200  A    between atoms: _490  and  _491
REMARK  201  A    between atoms: _494  and  _496
REMARK  202  A    between atoms: _496  and  _497
REMARK  203  A    between atoms: _496  and  _499
REMARK  204  A    between atoms: _499  and  _500
REMARK  205  A    between atoms: _500  and  _501
REMARK  206  A    between atoms: _503  and  _505
REMARK  207  A    between atoms: _505  and  _506
REMARK  208  A    between atoms: _505  and  _508
REMARK  209  A    between atoms: _508  and  _509
REMARK  210  A    between atoms: _514  and  _515
REMARK  211  A    between atoms: _517  and  _519
REMARK  212  A    between atoms: _519  and  _520
REMARK  213  A    between atoms: _519  and  _522
REMARK  214  A    between atoms: _522  and  _523
REMARK  215  A    between atoms: _526  and  _528
REMARK  216  A    between atoms: _528  and  _529
REMARK  217  A    between atoms: _528  and  _531
REMARK  218  A    between atoms: _531  and  _532
REMARK  219  A    between atoms: _532  and  _533
REMARK  220  A    between atoms: _533  and  _534
REMARK  221  A    between atoms: _534  and  _535
REMARK  222  A    between atoms: _539  and  _541
REMARK  223  A    between atoms: _541  and  _542
REMARK  224  A    between atoms: _541  and  _544
REMARK  225  A    between atoms: _544  and  _545
REMARK  226  A    between atoms: _550  and  _551
REMARK                            x       y       z     vdW  Elec       q    Type
REMARK                         _______ _______ _______ _____ _____    ______ ____
ROOT
ATOM      1  O   HOH     1      17.199  78.216  -2.401  0.00  0.00    +0.000 OA
ENDROOT
TORSDOF 0
REMARK  Name = ../refined-set-2016/3zc5/3zc5_pocket.pdb
REMARK  226 active torsions:
REMARK  status: ('A' for Active; 'I' for Inactive)
REMARK    1  A    between atoms: _1  and  _3
REMARK    2  A    between atoms: _3  and  _4
REMARK    3  A    between atoms: _3  and  _6
REMARK    4  A    between atoms: _9  and  _11
REMARK    5  A    between atoms: _11  and  _12
REMARK    6  A    between atoms: _11  and  _14
REMARK    7  A    between atoms: _14  and  _15
REMARK    8  A    between atoms: _18  and  _20
REMARK    9  A    between atoms: _20  and  _21
REMARK   10  A    between atoms: _23  and  _25
REMARK   11  A    between atoms: _25  and  _26
REMARK   12  A    between atoms: _25  and  _28
REMARK   13  A    between atoms: _28  and  _29
REMARK   14  A    between atoms: _29  and  _30
REMARK   15  A    between atoms: _30  and  _31
REMARK   16  A    between atoms: _40  and  _42
REMARK   17  A    between atoms: _42  and  _43
REMARK   18  A    between atoms: _45  and  _47
REMARK   19  A    between atoms: _47  and  _48
REMARK   20  A    between atoms: _47  and  _50
REMARK   21  A    between atoms: _52  and  _54
REMARK   22  A    between atoms: _54  and  _55
REMARK   23  A    between atoms: _54  and  _57
REMARK   24  A    between atoms: _60  and  _62
REMARK   25  A    between atoms: _62  and  _63
REMARK   26  A    between atoms: _62  and  _65
REMARK   27  A    between atoms: _65  and  _66
REMARK   28  A    between atoms: _71  and  _72
REMARK   29  A    between atoms: _74  and  _76
REMARK   30  A    between atoms: _76  and  _77
REMARK   31  A    between atoms: _76  and  _79
REMARK   32  A    between atoms: _79  and  _80
REMARK   33  A    between atoms: _85  and  _87
REMARK   34  A    between atoms: _87  and  _88
REMARK   35  A    between atoms: _90  and  _92
REMARK   36  A    between atoms: _92  and  _93
REMARK   37  A    between atoms: _92  and  _95
REMARK   38  A    between atoms: _95  and  _96
REMARK   39  A    between atoms: _101  and  _103
REMARK   40  A    between atoms: _103  and  _104
REMARK   41  A    between atoms: _103  and  _106
REMARK   42  A    between atoms: _108  and  _110
REMARK   43  A    between atoms: _110  and  _111
REMARK   44  A    between atoms: _114  and  _116
REMARK   45  A    between atoms: _116  and  _117
REMARK   46  A    between atoms: _116  and  _119
REMARK   47  A    between atoms: _122  and  _124
REMARK   48  A    between atoms: _124  and  _125
REMARK   49  A    between atoms: _124  and  _127
REMARK   50  A    between atoms: _127  and  _128
REMARK   51  A    between atoms: _128  and  _129
REMARK   52  A    between atoms: _129  and  _130
REMARK   53  A    between atoms: _130  and  _131
REMARK   54  A    between atoms: _135  and  _137
REMARK   55  A    between atoms: _137  and  _138
REMARK   56  A    between atoms: _137  and  _140
REMARK   57  A    between atoms: _140  and  _141
REMARK   58  A    between atoms: _143  and  _145
REMARK   59  A    between atoms: _145  and  _146
REMARK   60  A    between atoms: _145  and  _148
REMARK   61  A    between atoms: _148  and  _149
REMARK   62  A    between atoms: _149  and  _150
REMARK   63  A    between atoms: _152  and  _154
REMARK   64  A    between atoms: _154  and  _155
REMARK   65  A    between atoms: _154  and  _157
REMARK   66  A    between atoms: _157  and  _158
REMARK   67  A    between atoms: _161  and  _163
REMARK   68  A    between atoms: _163  and  _164
REMARK   69  A    between atoms: _163  and  _166
REMARK   70  A    between atoms: _166  and  _167
REMARK   71  A    between atoms: _169  and  _171
REMARK   72  A    between atoms: _171  and  _172
REMARK   73  A    between atoms: _171  and  _174
REMARK   74  A    between atoms: _177  and  _179
REMARK   75  A    between atoms: _179  and  _180
REMARK   76  A    between atoms: _179  and  _182
REMARK   77  A    between atoms: _185  and  _187
REMARK   78  A    between atoms: _187  and  _188
REMARK   79  A    between atoms: _187  and  _190
REMARK   80  A    between atoms: _190  and  _191
REMARK   81  A    between atoms: _195  and  _196
REMARK   82  A    between atoms: _201  and  _203
REMARK   83  A    between atoms: _203  and  _204
REMARK   84  A    between atoms: _203  and  _206
REMARK   85  A    between atoms: _206  and  _207
REMARK   86  A    between atoms: _212  and  _213
REMARK   87  A    between atoms: _215  and  _217
REMARK   88  A    between atoms: _217  and  _218
REMARK   89  A    between atoms: _217  and  _220
REMARK   90  A    between atoms: _220  and  _221
REMARK   91  A    between atoms: _221  and  _222
REMARK   92  A    between atoms: _224  and  _226
REMARK   93  A    between atoms: _226  and  _227
REMARK   94  A    between atoms: _226  and  _229
REMARK   95  A    between atoms: _229  and  _230
REMARK   96  A    between atoms: _230  and  _231
REMARK   97  A    between atoms: _231  and  _232
REMARK   98  A    between atoms: _232  and  _233
REMARK   99  A    between atoms: _237  and  _239
REMARK  100  A    between atoms: _239  and  _240
REMARK  101  A    between atoms: _239  and  _242
REMARK  102  A    between atoms: _242  and  _243
REMARK  103  A    between atoms: _248  and  _250
REMARK  104  A    between atoms: _250  and  _251
REMARK  105  A    between atoms: _253  and  _255
REMARK  106  A    between atoms: _255  and  _256
REMARK  107  A    between atoms: _255  and  _258
REMARK  108  A    between atoms: _258  and  _259
REMARK  109  A    between atoms: _262  and  _264
REMARK  110  A    between atoms: _264  and  _265
REMARK  111  A    between atoms: _264  and  _267
REMARK  112  A    between atoms: _267  and  _268
REMARK  113  A    between atoms: _271  and  _273
REMARK  114  A    between atoms: _273  and  _274
REMARK  115  A    between atoms: _273  and  _276
REMARK  116  A    between atoms: _276  and  _277
REMARK  117  A    between atoms: _277  and  _278
REMARK  118  A    between atoms: _278  and  _279
REMARK  119  A    between atoms: _288  and  _290
REMARK  120  A    between atoms: _290  and  _291
REMARK  121  A    between atoms: _290  and  _293
REMARK  122  A    between atoms: _293  and  _294
REMARK  123  A    between atoms: _299  and  _301
REMARK  124  A    between atoms: _301  and  _302
REMARK  125  A    between atoms: _301  and  _304
REMARK  126  A    between atoms: _304  and  _305
REMARK  127  A    between atoms: _311  and  _313
REMARK  128  A    between atoms: _313  and  _314
REMARK  129  A    between atoms: _313  and  _316
REMARK  130  A    between atoms: _316  and  _317
REMARK  131  A    between atoms: _322  and  _324
REMARK  132  A    between atoms: _324  and  _325
REMARK  133  A    between atoms: _324  and  _327
REMARK  134  A    between atoms: _327  and  _328
REMARK  135  A    between atoms: _331  and  _333
REMARK  136  A    between atoms: _333  and  _334
REMARK  137  A    between atoms: _337  and  _339
REMARK  138  A    between atoms: _339  and  _340
REMARK  139  A    between atoms: _343  and  _345
REMARK  140  A    between atoms: _345  and  _346
REMARK  141  A    between atoms: _345  and  _348
REMARK  142  A    between atoms: _348  and  _349
REMARK  143  A    between atoms: _349  and  _350
REMARK  144  A    between atoms: _350  and  _351
REMARK  145  A    between atoms: _360  and  _362
REMARK  146  A    between atoms: _362  and  _363
REMARK  147  A    between atoms: _362  and  _365
REMARK  148  A    between atoms: _365  and  _366
REMARK  149  A    between atoms: _371  and  _373
REMARK  150  A    between atoms: _373  and  _374
REMARK  151  A    between atoms: _373  and  _376
REMARK  152  A    between atoms: _378  and  _380
REMARK  153  A    between atoms: _380  and  _381
REMARK  154  A    between atoms: _380  and  _383
REMARK  155  A    between atoms: _383  and  _384
REMARK  156  A    between atoms: _384  and  _385
REMARK  157  A    between atoms: _387  and  _389
REMARK  158  A    between atoms: _389  and  _390
REMARK  159  A    between atoms: _389  and  _392
REMARK  160  A    between atoms: _392  and  _393
REMARK  161  A    between atoms: _396  and  _398
REMARK  162  A    between atoms: _398  and  _399
REMARK  163  A    between atoms: _398  and  _401
REMARK  164  A    between atoms: _401  and  _402
REMARK  165  A    between atoms: _405  and  _407
REMARK  166  A    between atoms: _407  and  _408
REMARK  167  A    between atoms: _407  and  _410
REMARK  168  A    between atoms: _410  and  _411
REMARK  169  A    between atoms: _411  and  _412
REMARK  170  A    between atoms: _412  and  _413
REMARK  171  A    between atoms: _413  and  _414
REMARK  172  A    between atoms: _418  and  _420
REMARK  173  A    between atoms: _420  and  _421
REMARK  174  A    between atoms: _420  and  _423
REMARK  175  A    between atoms: _426  and  _428
REMARK  176  A    between atoms: _428  and  _429
REMARK  177  A    between atoms: _432  and  _434
REMARK  178  A    between atoms: _434  and  _435
REMARK  179  A    between atoms: _434  and  _437
REMARK  180  A    between atoms: _437  and  _438
REMARK  181  A    between atoms: _441  and  _443
REMARK  182  A    between atoms: _443  and  _444
REMARK  183  A    between atoms: _443  and  _446
REMARK  184  A    between atoms: _446  and  _447
REMARK  185  A    between atoms: _453  and  _455
REMARK  186  A    between atoms: _455  and  _456
REMARK  187  A    between atoms: _455  and  _458
REMARK  188  A    between atoms: _458  and  _459
REMARK  189  A    between atoms: _462  and  _464
REMARK  190  A    between atoms: _464  and  _465
REMARK  191  A    between atoms: _468  and  _470
REMARK  192  A    between atoms: _470  and  _471
REMARK  193  A    between atoms: _470  and  _473
REMARK  194  A    between atoms: _473  and  _474
REMARK  195  A    between atoms: _474  and  _475
REMARK  196  A    between atoms: _475  and  _476
REMARK  197  A    between atoms: _485  and  _487
REMARK  198  A    between atoms: _487  and  _488
REMARK  199  A    between atoms: _487  and  _490
REMARK  200  A    between atoms: _490  and  _491
REMARK  201  A    between atoms: _494  and  _496
REMARK  202  A    between atoms: _496  and  _497
REMARK  203  A    between atoms: _496  and  _499
REMARK  204  A    between atoms: _499  and  _500
REMARK  205  A    between atoms: _500  and  _501
REMARK  206  A    between atoms: _503  and  _505
REMARK  207  A    between atoms: _505  and  _506
REMARK  208  A    between atoms: _505  and  _508
REMARK  209  A    between atoms: _508  and  _509
REMARK  210  A    between atoms: _514  and  _515
REMARK  211  A    between atoms: _517  and  _519
REMARK  212  A    between atoms: _519  and  _520
REMARK  213  A    between atoms: _519  and  _522
REMARK  214  A    between atoms: _522  and  _523
REMARK  215  A    between atoms: _526  and  _528
REMARK  216  A    between atoms: _528  and  _529
REMARK  217  A    between atoms: _528  and  _531
REMARK  218  A    between atoms: _531  and  _532
REMARK  219  A    between atoms: _532  and  _533
REMARK  220  A    between atoms: _533  and  _534
REMARK  221  A    between atoms: _534  and  _535
REMARK  222  A    between atoms: _539  and  _541
REMARK  223  A    between atoms: _541  and  _542
REMARK  224  A    between atoms: _541  and  _544
REMARK  225  A    between atoms: _544  and  _545
REMARK  226  A    between atoms: _550  and  _551
REMARK                            x       y       z     vdW  Elec       q    Type
REMARK                         _______ _______ _______ _____ _____    ______ ____
ROOT
ATOM      1  O   HOH     1      12.805  80.050   4.517  0.00  0.00    +0.000 OA
ENDROOT
TORSDOF 0
REMARK  Name = ../refined-set-2016/3zc5/3zc5_pocket.pdb
REMARK  226 active torsions:
REMARK  status: ('A' for Active; 'I' for Inactive)
REMARK    1  A    between atoms: _1  and  _3
REMARK    2  A    between atoms: _3  and  _4
REMARK    3  A    between atoms: _3  and  _6
REMARK    4  A    between atoms: _9  and  _11
REMARK    5  A    between atoms: _11  and  _12
REMARK    6  A    between atoms: _11  and  _14
REMARK    7  A    between atoms: _14  and  _15
REMARK    8  A    between atoms: _18  and  _20
REMARK    9  A    between atoms: _20  and  _21
REMARK   10  A    between atoms: _23  and  _25
REMARK   11  A    between atoms: _25  and  _26
REMARK   12  A    between atoms: _25  and  _28
REMARK   13  A    between atoms: _28  and  _29
REMARK   14  A    between atoms: _29  and  _30
REMARK   15  A    between atoms: _30  and  _31
REMARK   16  A    between atoms: _40  and  _42
REMARK   17  A    between atoms: _42  and  _43
REMARK   18  A    between atoms: _45  and  _47
REMARK   19  A    between atoms: _47  and  _48
REMARK   20  A    between atoms: _47  and  _50
REMARK   21  A    between atoms: _52  and  _54
REMARK   22  A    between atoms: _54  and  _55
REMARK   23  A    between atoms: _54  and  _57
REMARK   24  A    between atoms: _60  and  _62
REMARK   25  A    between atoms: _62  and  _63
REMARK   26  A    between atoms: _62  and  _65
REMARK   27  A    between atoms: _65  and  _66
REMARK   28  A    between atoms: _71  and  _72
REMARK   29  A    between atoms: _74  and  _76
REMARK   30  A    between atoms: _76  and  _77
REMARK   31  A    between atoms: _76  and  _79
REMARK   32  A    between atoms: _79  and  _80
REMARK   33  A    between atoms: _85  and  _87
REMARK   34  A    between atoms: _87  and  _88
REMARK   35  A    between atoms: _90  and  _92
REMARK   36  A    between atoms: _92  and  _93
REMARK   37  A    between atoms: _92  and  _95
REMARK   38  A    between atoms: _95  and  _96
REMARK   39  A    between atoms: _101  and  _103
REMARK   40  A    between atoms: _103  and  _104
REMARK   41  A    between atoms: _103  and  _106
REMARK   42  A    between atoms: _108  and  _110
REMARK   43  A    between atoms: _110  and  _111
REMARK   44  A    between atoms: _114  and  _116
REMARK   45  A    between atoms: _116  and  _117
REMARK   46  A    between atoms: _116  and  _119
REMARK   47  A    between atoms: _122  and  _124
REMARK   48  A    between atoms: _124  and  _125
REMARK   49  A    between atoms: _124  and  _127
REMARK   50  A    between atoms: _127  and  _128
REMARK   51  A    between atoms: _128  and  _129
REMARK   52  A    between atoms: _129  and  _130
REMARK   53  A    between atoms: _130  and  _131
REMARK   54  A    between atoms: _135  and  _137
REMARK   55  A    between atoms: _137  and  _138
REMARK   56  A    between atoms: _137  and  _140
REMARK   57  A    between atoms: _140  and  _141
REMARK   58  A    between atoms: _143  and  _145
REMARK   59  A    between atoms: _145  and  _146
REMARK   60  A    between atoms: _145  and  _148
REMARK   61  A    between atoms: _148  and  _149
REMARK   62  A    between atoms: _149  and  _150
REMARK   63  A    between atoms: _152  and  _154
REMARK   64  A    between atoms: _154  and  _155
REMARK   65  A    between atoms: _154  and  _157
REMARK   66  A    between atoms: _157  and  _158
REMARK   67  A    between atoms: _161  and  _163
REMARK   68  A    between atoms: _163  and  _164
REMARK   69  A    between atoms: _163  and  _166
REMARK   70  A    between atoms: _166  and  _167
REMARK   71  A    between atoms: _169  and  _171
REMARK   72  A    between atoms: _171  and  _172
REMARK   73  A    between atoms: _171  and  _174
REMARK   74  A    between atoms: _177  and  _179
REMARK   75  A    between atoms: _179  and  _180
REMARK   76  A    between atoms: _179  and  _182
REMARK   77  A    between atoms: _185  and  _187
REMARK   78  A    between atoms: _187  and  _188
REMARK   79  A    between atoms: _187  and  _190
REMARK   80  A    between atoms: _190  and  _191
REMARK   81  A    between atoms: _195  and  _196
REMARK   82  A    between atoms: _201  and  _203
REMARK   83  A    between atoms: _203  and  _204
REMARK   84  A    between atoms: _203  and  _206
REMARK   85  A    between atoms: _206  and  _207
REMARK   86  A    between atoms: _212  and  _213
REMARK   87  A    between atoms: _215  and  _217
REMARK   88  A    between atoms: _217  and  _218
REMARK   89  A    between atoms: _217  and  _220
REMARK   90  A    between atoms: _220  and  _221
REMARK   91  A    between atoms: _221  and  _222
REMARK   92  A    between atoms: _224  and  _226
REMARK   93  A    between atoms: _226  and  _227
REMARK   94  A    between atoms: _226  and  _229
REMARK   95  A    between atoms: _229  and  _230
REMARK   96  A    between atoms: _230  and  _231
REMARK   97  A    between atoms: _231  and  _232
REMARK   98  A    between atoms: _232  and  _233
REMARK   99  A    between atoms: _237  and  _239
REMARK  100  A    between atoms: _239  and  _240
REMARK  101  A    between atoms: _239  and  _242
REMARK  102  A    between atoms: _242  and  _243
REMARK  103  A    between atoms: _248  and  _250
REMARK  104  A    between atoms: _250  and  _251
REMARK  105  A    between atoms: _253  and  _255
REMARK  106  A    between atoms: _255  and  _256
REMARK  107  A    between atoms: _255  and  _258
REMARK  108  A    between atoms: _258  and  _259
REMARK  109  A    between atoms: _262  and  _264
REMARK  110  A    between atoms: _264  and  _265
REMARK  111  A    between atoms: _264  and  _267
REMARK  112  A    between atoms: _267  and  _268
REMARK  113  A    between atoms: _271  and  _273
REMARK  114  A    between atoms: _273  and  _274
REMARK  115  A    between atoms: _273  and  _276
REMARK  116  A    between atoms: _276  and  _277
REMARK  117  A    between atoms: _277  and  _278
REMARK  118  A    between atoms: _278  and  _279
REMARK  119  A    between atoms: _288  and  _290
REMARK  120  A    between atoms: _290  and  _291
REMARK  121  A    between atoms: _290  and  _293
REMARK  122  A    between atoms: _293  and  _294
REMARK  123  A    between atoms: _299  and  _301
REMARK  124  A    between atoms: _301  and  _302
REMARK  125  A    between atoms: _301  and  _304
REMARK  126  A    between atoms: _304  and  _305
REMARK  127  A    between atoms: _311  and  _313
REMARK  128  A    between atoms: _313  and  _314
REMARK  129  A    between atoms: _313  and  _316
REMARK  130  A    between atoms: _316  and  _317
REMARK  131  A    between atoms: _322  and  _324
REMARK  132  A    between atoms: _324  and  _325
REMARK  133  A    between atoms: _324  and  _327
REMARK  134  A    between atoms: _327  and  _328
REMARK  135  A    between atoms: _331  and  _333
REMARK  136  A    between atoms: _333  and  _334
REMARK  137  A    between atoms: _337  and  _339
REMARK  138  A    between atoms: _339  and  _340
REMARK  139  A    between atoms: _343  and  _345
REMARK  140  A    between atoms: _345  and  _346
REMARK  141  A    between atoms: _345  and  _348
REMARK  142  A    between atoms: _348  and  _349
REMARK  143  A    between atoms: _349  and  _350
REMARK  144  A    between atoms: _350  and  _351
REMARK  145  A    between atoms: _360  and  _362
REMARK  146  A    between atoms: _362  and  _363
REMARK  147  A    between atoms: _362  and  _365
REMARK  148  A    between atoms: _365  and  _366
REMARK  149  A    between atoms: _371  and  _373
REMARK  150  A    between atoms: _373  and  _374
REMARK  151  A    between atoms: _373  and  _376
REMARK  152  A    between atoms: _378  and  _380
REMARK  153  A    between atoms: _380  and  _381
REMARK  154  A    between atoms: _380  and  _383
REMARK  155  A    between atoms: _383  and  _384
REMARK  156  A    between atoms: _384  and  _385
REMARK  157  A    between atoms: _387  and  _389
REMARK  158  A    between atoms: _389  and  _390
REMARK  159  A    between atoms: _389  and  _392
REMARK  160  A    between atoms: _392  and  _393
REMARK  161  A    between atoms: _396  and  _398
REMARK  162  A    between atoms: _398  and  _399
REMARK  163  A    between atoms: _398  and  _401
REMARK  164  A    between atoms: _401  and  _402
REMARK  165  A    between atoms: _405  and  _407
REMARK  166  A    between atoms: _407  and  _408
REMARK  167  A    between atoms: _407  and  _410
REMARK  168  A    between atoms: _410  and  _411
REMARK  169  A    between atoms: _411  and  _412
REMARK  170  A    between atoms: _412  and  _413
REMARK  171  A    between atoms: _413  and  _414
REMARK  172  A    between atoms: _418  and  _420
REMARK  173  A    between atoms: _420  and  _421
REMARK  174  A    between atoms: _420  and  _423
REMARK  175  A    between atoms: _426  and  _428
REMARK  176  A    between atoms: _428  and  _429
REMARK  177  A    between atoms: _432  and  _434
REMARK  178  A    between atoms: _434  and  _435
REMARK  179  A    between atoms: _434  and  _437
REMARK  180  A    between atoms: _437  and  _438
REMARK  181  A    between atoms: _441  and  _443
REMARK  182  A    between atoms: _443  and  _444
REMARK  183  A    between atoms: _443  and  _446
REMARK  184  A    between atoms: _446  and  _447
REMARK  185  A    between atoms: _453  and  _455
REMARK  186  A    between atoms: _455  and  _456
REMARK  187  A    between atoms: _455  and  _458
REMARK  188  A    between atoms: _458  and  _459
REMARK  189  A    between atoms: _462  and  _464
REMARK  190  A    between atoms: _464  and  _465
REMARK  191  A    between atoms: _468  and  _470
REMARK  192  A    between atoms: _470  and  _471
REMARK  193  A    between atoms: _470  and  _473
REMARK  194  A    between atoms: _473  and  _474
REMARK  195  A    between atoms: _474  and  _475
REMARK  196  A    between atoms: _475  and  _476
REMARK  197  A    between atoms: _485  and  _487
REMARK  198  A    between atoms: _487  and  _488
REMARK  199  A    between atoms: _487  and  _490
REMARK  200  A    between atoms: _490  and  _491
REMARK  201  A    between atoms: _494  and  _496
REMARK  202  A    between atoms: _496  and  _497
REMARK  203  A    between atoms: _496  and  _499
REMARK  204  A    between atoms: _499  and  _500
REMARK  205  A    between atoms: _500  and  _501
REMARK  206  A    between atoms: _503  and  _505
REMARK  207  A    between atoms: _505  and  _506
REMARK  208  A    between atoms: _505  and  _508
REMARK  209  A    between atoms: _508  and  _509
REMARK  210  A    between atoms: _514  and  _515
REMARK  211  A    between atoms: _517  and  _519
REMARK  212  A    between atoms: _519  and  _520
REMARK  213  A    between atoms: _519  and  _522
REMARK  214  A    between atoms: _522  and  _523
REMARK  215  A    between atoms: _526  and  _528
REMARK  216  A    between atoms: _528  and  _529
REMARK  217  A    between atoms: _528  and  _531
REMARK  218  A    between atoms: _531  and  _532
REMARK  219  A    between atoms: _532  and  _533
REMARK  220  A    between atoms: _533  and  _534
REMARK  221  A    between atoms: _534  and  _535
REMARK  222  A    between atoms: _539  and  _541
REMARK  223  A    between atoms: _541  and  _542
REMARK  224  A    between atoms: _541  and  _544
REMARK  225  A    between atoms: _544  and  _545
REMARK  226  A    between atoms: _550  and  _551
REMARK                            x       y       z     vdW  Elec       q    Type
REMARK                         _______ _______ _______ _____ _____    ______ ____
ROOT
ATOM      1  O   HOH     1      13.733  73.854   1.450  0.00  0.00    +0.000 OA
ENDROOT
TORSDOF 0
REMARK  Name = ../refined-set-2016/3zc5/3zc5_pocket.pdb
REMARK  226 active torsions:
REMARK  status: ('A' for Active; 'I' for Inactive)
REMARK    1  A    between atoms: _1  and  _3
REMARK    2  A    between atoms: _3  and  _4
REMARK    3  A    between atoms: _3  and  _6
REMARK    4  A    between atoms: _9  and  _11
REMARK    5  A    between atoms: _11  and  _12
REMARK    6  A    between atoms: _11  and  _14
REMARK    7  A    between atoms: _14  and  _15
REMARK    8  A    between atoms: _18  and  _20
REMARK    9  A    between atoms: _20  and  _21
REMARK   10  A    between atoms: _23  and  _25
REMARK   11  A    between atoms: _25  and  _26
REMARK   12  A    between atoms: _25  and  _28
REMARK   13  A    between atoms: _28  and  _29
REMARK   14  A    between atoms: _29  and  _30
REMARK   15  A    between atoms: _30  and  _31
REMARK   16  A    between atoms: _40  and  _42
REMARK   17  A    between atoms: _42  and  _43
REMARK   18  A    between atoms: _45  and  _47
REMARK   19  A    between atoms: _47  and  _48
REMARK   20  A    between atoms: _47  and  _50
REMARK   21  A    between atoms: _52  and  _54
REMARK   22  A    between atoms: _54  and  _55
REMARK   23  A    between atoms: _54  and  _57
REMARK   24  A    between atoms: _60  and  _62
REMARK   25  A    between atoms: _62  and  _63
REMARK   26  A    between atoms: _62  and  _65
REMARK   27  A    between atoms: _65  and  _66
REMARK   28  A    between atoms: _71  and  _72
REMARK   29  A    between atoms: _74  and  _76
REMARK   30  A    between atoms: _76  and  _77
REMARK   31  A    between atoms: _76  and  _79
REMARK   32  A    between atoms: _79  and  _80
REMARK   33  A    between atoms: _85  and  _87
REMARK   34  A    between atoms: _87  and  _88
REMARK   35  A    between atoms: _90  and  _92
REMARK   36  A    between atoms: _92  and  _93
REMARK   37  A    between atoms: _92  and  _95
REMARK   38  A    between atoms: _95  and  _96
REMARK   39  A    between atoms: _101  and  _103
REMARK   40  A    between atoms: _103  and  _104
REMARK   41  A    between atoms: _103  and  _106
REMARK   42  A    between atoms: _108  and  _110
REMARK   43  A    between atoms: _110  and  _111
REMARK   44  A    between atoms: _114  and  _116
REMARK   45  A    between atoms: _116  and  _117
REMARK   46  A    between atoms: _116  and  _119
REMARK   47  A    between atoms: _122  and  _124
REMARK   48  A    between atoms: _124  and  _125
REMARK   49  A    between atoms: _124  and  _127
REMARK   50  A    between atoms: _127  and  _128
REMARK   51  A    between atoms: _128  and  _129
REMARK   52  A    between atoms: _129  and  _130
REMARK   53  A    between atoms: _130  and  _131
REMARK   54  A    between atoms: _135  and  _137
REMARK   55  A    between atoms: _137  and  _138
REMARK   56  A    between atoms: _137  and  _140
REMARK   57  A    between atoms: _140  and  _141
REMARK   58  A    between atoms: _143  and  _145
REMARK   59  A    between atoms: _145  and  _146
REMARK   60  A    between atoms: _145  and  _148
REMARK   61  A    between atoms: _148  and  _149
REMARK   62  A    between atoms: _149  and  _150
REMARK   63  A    between atoms: _152  and  _154
REMARK   64  A    between atoms: _154  and  _155
REMARK   65  A    between atoms: _154  and  _157
REMARK   66  A    between atoms: _157  and  _158
REMARK   67  A    between atoms: _161  and  _163
REMARK   68  A    between atoms: _163  and  _164
REMARK   69  A    between atoms: _163  and  _166
REMARK   70  A    between atoms: _166  and  _167
REMARK   71  A    between atoms: _169  and  _171
REMARK   72  A    between atoms: _171  and  _172
REMARK   73  A    between atoms: _171  and  _174
REMARK   74  A    between atoms: _177  and  _179
REMARK   75  A    between atoms: _179  and  _180
REMARK   76  A    between atoms: _179  and  _182
REMARK   77  A    between atoms: _185  and  _187
REMARK   78  A    between atoms: _187  and  _188
REMARK   79  A    between atoms: _187  and  _190
REMARK   80  A    between atoms: _190  and  _191
REMARK   81  A    between atoms: _195  and  _196
REMARK   82  A    between atoms: _201  and  _203
REMARK   83  A    between atoms: _203  and  _204
REMARK   84  A    between atoms: _203  and  _206
REMARK   85  A    between atoms: _206  and  _207
REMARK   86  A    between atoms: _212  and  _213
REMARK   87  A    between atoms: _215  and  _217
REMARK   88  A    between atoms: _217  and  _218
REMARK   89  A    between atoms: _217  and  _220
REMARK   90  A    between atoms: _220  and  _221
REMARK   91  A    between atoms: _221  and  _222
REMARK   92  A    between atoms: _224  and  _226
REMARK   93  A    between atoms: _226  and  _227
REMARK   94  A    between atoms: _226  and  _229
REMARK   95  A    between atoms: _229  and  _230
REMARK   96  A    between atoms: _230  and  _231
REMARK   97  A    between atoms: _231  and  _232
REMARK   98  A    between atoms: _232  and  _233
REMARK   99  A    between atoms: _237  and  _239
REMARK  100  A    between atoms: _239  and  _240
REMARK  101  A    between atoms: _239  and  _242
REMARK  102  A    between atoms: _242  and  _243
REMARK  103  A    between atoms: _248  and  _250
REMARK  104  A    between atoms: _250  and  _251
REMARK  105  A    between atoms: _253  and  _255
REMARK  106  A    between atoms: _255  and  _256
REMARK  107  A    between atoms: _255  and  _258
REMARK  108  A    between atoms: _258  and  _259
REMARK  109  A    between atoms: _262  and  _264
REMARK  110  A    between atoms: _264  and  _265
REMARK  111  A    between atoms: _264  and  _267
REMARK  112  A    between atoms: _267  and  _268
REMARK  113  A    between atoms: _271  and  _273
REMARK  114  A    between atoms: _273  and  _274
REMARK  115  A    between atoms: _273  and  _276
REMARK  116  A    between atoms: _276  and  _277
REMARK  117  A    between atoms: _277  and  _278
REMARK  118  A    between atoms: _278  and  _279
REMARK  119  A    between atoms: _288  and  _290
REMARK  120  A    between atoms: _290  and  _291
REMARK  121  A    between atoms: _290  and  _293
REMARK  122  A    between atoms: _293  and  _294
REMARK  123  A    between atoms: _299  and  _301
REMARK  124  A    between atoms: _301  and  _302
REMARK  125  A    between atoms: _301  and  _304
REMARK  126  A    between atoms: _304  and  _305
REMARK  127  A    between atoms: _311  and  _313
REMARK  128  A    between atoms: _313  and  _314
REMARK  129  A    between atoms: _313  and  _316
REMARK  130  A    between atoms: _316  and  _317
REMARK  131  A    between atoms: _322  and  _324
REMARK  132  A    between atoms: _324  and  _325
REMARK  133  A    between atoms: _324  and  _327
REMARK  134  A    between atoms: _327  and  _328
REMARK  135  A    between atoms: _331  and  _333
REMARK  136  A    between atoms: _333  and  _334
REMARK  137  A    between atoms: _337  and  _339
REMARK  138  A    between atoms: _339  and  _340
REMARK  139  A    between atoms: _343  and  _345
REMARK  140  A    between atoms: _345  and  _346
REMARK  141  A    between atoms: _345  and  _348
REMARK  142  A    between atoms: _348  and  _349
REMARK  143  A    between atoms: _349  and  _350
REMARK  144  A    between atoms: _350  and  _351
REMARK  145  A    between atoms: _360  and  _362
REMARK  146  A    between atoms: _362  and  _363
REMARK  147  A    between atoms: _362  and  _365
REMARK  148  A    between atoms: _365  and  _366
REMARK  149  A    between atoms: _371  and  _373
REMARK  150  A    between atoms: _373  and  _374
REMARK  151  A    between atoms: _373  and  _376
REMARK  152  A    between atoms: _378  and  _380
REMARK  153  A    between atoms: _380  and  _381
REMARK  154  A    between atoms: _380  and  _383
REMARK  155  A    between atoms: _383  and  _384
REMARK  156  A    between atoms: _384  and  _385
REMARK  157  A    between atoms: _387  and  _389
REMARK  158  A    between atoms: _389  and  _390
REMARK  159  A    between atoms: _389  and  _392
REMARK  160  A    between atoms: _392  and  _393
REMARK  161  A    between atoms: _396  and  _398
REMARK  162  A    between atoms: _398  and  _399
REMARK  163  A    between atoms: _398  and  _401
REMARK  164  A    between atoms: _401  and  _402
REMARK  165  A    between atoms: _405  and  _407
REMARK  166  A    between atoms: _407  and  _408
REMARK  167  A    between atoms: _407  and  _410
REMARK  168  A    between atoms: _410  and  _411
REMARK  169  A    between atoms: _411  and  _412
REMARK  170  A    between atoms: _412  and  _413
REMARK  171  A    between atoms: _413  and  _414
REMARK  172  A    between atoms: _418  and  _420
REMARK  173  A    between atoms: _420  and  _421
REMARK  174  A    between atoms: _420  and  _423
REMARK  175  A    between atoms: _426  and  _428
REMARK  176  A    between atoms: _428  and  _429
REMARK  177  A    between atoms: _432  and  _434
REMARK  178  A    between atoms: _434  and  _435
REMARK  179  A    between atoms: _434  and  _437
REMARK  180  A    between atoms: _437  and  _438
REMARK  181  A    between atoms: _441  and  _443
REMARK  182  A    between atoms: _443  and  _444
REMARK  183  A    between atoms: _443  and  _446
REMARK  184  A    between atoms: _446  and  _447
REMARK  185  A    between atoms: _453  and  _455
REMARK  186  A    between atoms: _455  and  _456
REMARK  187  A    between atoms: _455  and  _458
REMARK  188  A    between atoms: _458  and  _459
REMARK  189  A    between atoms: _462  and  _464
REMARK  190  A    between atoms: _464  and  _465
REMARK  191  A    between atoms: _468  and  _470
REMARK  192  A    between atoms: _470  and  _471
REMARK  193  A    between atoms: _470  and  _473
REMARK  194  A    between atoms: _473  and  _474
REMARK  195  A    between atoms: _474  and  _475
REMARK  196  A    between atoms: _475  and  _476
REMARK  197  A    between atoms: _485  and  _487
REMARK  198  A    between atoms: _487  and  _488
REMARK  199  A    between atoms: _487  and  _490
REMARK  200  A    between atoms: _490  and  _491
REMARK  201  A    between atoms: _494  and  _496
REMARK  202  A    between atoms: _496  and  _497
REMARK  203  A    between atoms: _496  and  _499
REMARK  204  A    between atoms: _499  and  _500
REMARK  205  A    between atoms: _500  and  _501
REMARK  206  A    between atoms: _503  and  _505
REMARK  207  A    between atoms: _505  and  _506
REMARK  208  A    between atoms: _505  and  _508
REMARK  209  A    between atoms: _508  and  _509
REMARK  210  A    between atoms: _514  and  _515
REMARK  211  A    between atoms: _517  and  _519
REMARK  212  A    between atoms: _519  and  _520
REMARK  213  A    between atoms: _519  and  _522
REMARK  214  A    between atoms: _522  and  _523
REMARK  215  A    between atoms: _526  and  _528
REMARK  216  A    between atoms: _528  and  _529
REMARK  217  A    between atoms: _528  and  _531
REMARK  218  A    between atoms: _531  and  _532
REMARK  219  A    between atoms: _532  and  _533
REMARK  220  A    between atoms: _533  and  _534
REMARK  221  A    between atoms: _534  and  _535
REMARK  222  A    between atoms: _539  and  _541
REMARK  223  A    between atoms: _541  and  _542
REMARK  224  A    between atoms: _541  and  _544
REMARK  225  A    between atoms: _544  and  _545
REMARK  226  A    between atoms: _550  and  _551
REMARK                            x       y       z     vdW  Elec       q    Type
REMARK                         _______ _______ _______ _____ _____    ______ ____
ROOT
ATOM      1  O   HOH     1      15.621  80.620  -2.207  0.00  0.00    +0.000 OA
ENDROOT
TORSDOF 0
REMARK  Name = ../refined-set-2016/3zc5/3zc5_pocket.pdb
REMARK  226 active torsions:
REMARK  status: ('A' for Active; 'I' for Inactive)
REMARK    1  A    between atoms: _1  and  _3
REMARK    2  A    between atoms: _3  and  _4
REMARK    3  A    between atoms: _3  and  _6
REMARK    4  A    between atoms: _9  and  _11
REMARK    5  A    between atoms: _11  and  _12
REMARK    6  A    between atoms: _11  and  _14
REMARK    7  A    between atoms: _14  and  _15
REMARK    8  A    between atoms: _18  and  _20
REMARK    9  A    between atoms: _20  and  _21
REMARK   10  A    between atoms: _23  and  _25
REMARK   11  A    between atoms: _25  and  _26
REMARK   12  A    between atoms: _25  and  _28
REMARK   13  A    between atoms: _28  and  _29
REMARK   14  A    between atoms: _29  and  _30
REMARK   15  A    between atoms: _30  and  _31
REMARK   16  A    between atoms: _40  and  _42
REMARK   17  A    between atoms: _42  and  _43
REMARK   18  A    between atoms: _45  and  _47
REMARK   19  A    between atoms: _47  and  _48
REMARK   20  A    between atoms: _47  and  _50
REMARK   21  A    between atoms: _52  and  _54
REMARK   22  A    between atoms: _54  and  _55
REMARK   23  A    between atoms: _54  and  _57
REMARK   24  A    between atoms: _60  and  _62
REMARK   25  A    between atoms: _62  and  _63
REMARK   26  A    between atoms: _62  and  _65
REMARK   27  A    between atoms: _65  and  _66
REMARK   28  A    between atoms: _71  and  _72
REMARK   29  A    between atoms: _74  and  _76
REMARK   30  A    between atoms: _76  and  _77
REMARK   31  A    between atoms: _76  and  _79
REMARK   32  A    between atoms: _79  and  _80
REMARK   33  A    between atoms: _85  and  _87
REMARK   34  A    between atoms: _87  and  _88
REMARK   35  A    between atoms: _90  and  _92
REMARK   36  A    between atoms: _92  and  _93
REMARK   37  A    between atoms: _92  and  _95
REMARK   38  A    between atoms: _95  and  _96
REMARK   39  A    between atoms: _101  and  _103
REMARK   40  A    between atoms: _103  and  _104
REMARK   41  A    between atoms: _103  and  _106
REMARK   42  A    between atoms: _108  and  _110
REMARK   43  A    between atoms: _110  and  _111
REMARK   44  A    between atoms: _114  and  _116
REMARK   45  A    between atoms: _116  and  _117
REMARK   46  A    between atoms: _116  and  _119
REMARK   47  A    between atoms: _122  and  _124
REMARK   48  A    between atoms: _124  and  _125
REMARK   49  A    between atoms: _124  and  _127
REMARK   50  A    between atoms: _127  and  _128
REMARK   51  A    between atoms: _128  and  _129
REMARK   52  A    between atoms: _129  and  _130
REMARK   53  A    between atoms: _130  and  _131
REMARK   54  A    between atoms: _135  and  _137
REMARK   55  A    between atoms: _137  and  _138
REMARK   56  A    between atoms: _137  and  _140
REMARK   57  A    between atoms: _140  and  _141
REMARK   58  A    between atoms: _143  and  _145
REMARK   59  A    between atoms: _145  and  _146
REMARK   60  A    between atoms: _145  and  _148
REMARK   61  A    between atoms: _148  and  _149
REMARK   62  A    between atoms: _149  and  _150
REMARK   63  A    between atoms: _152  and  _154
REMARK   64  A    between atoms: _154  and  _155
REMARK   65  A    between atoms: _154  and  _157
REMARK   66  A    between atoms: _157  and  _158
REMARK   67  A    between atoms: _161  and  _163
REMARK   68  A    between atoms: _163  and  _164
REMARK   69  A    between atoms: _163  and  _166
REMARK   70  A    between atoms: _166  and  _167
REMARK   71  A    between atoms: _169  and  _171
REMARK   72  A    between atoms: _171  and  _172
REMARK   73  A    between atoms: _171  and  _174
REMARK   74  A    between atoms: _177  and  _179
REMARK   75  A    between atoms: _179  and  _180
REMARK   76  A    between atoms: _179  and  _182
REMARK   77  A    between atoms: _185  and  _187
REMARK   78  A    between atoms: _187  and  _188
REMARK   79  A    between atoms: _187  and  _190
REMARK   80  A    between atoms: _190  and  _191
REMARK   81  A    between atoms: _195  and  _196
REMARK   82  A    between atoms: _201  and  _203
REMARK   83  A    between atoms: _203  and  _204
REMARK   84  A    between atoms: _203  and  _206
REMARK   85  A    between atoms: _206  and  _207
REMARK   86  A    between atoms: _212  and  _213
REMARK   87  A    between atoms: _215  and  _217
REMARK   88  A    between atoms: _217  and  _218
REMARK   89  A    between atoms: _217  and  _220
REMARK   90  A    between atoms: _220  and  _221
REMARK   91  A    between atoms: _221  and  _222
REMARK   92  A    between atoms: _224  and  _226
REMARK   93  A    between atoms: _226  and  _227
REMARK   94  A    between atoms: _226  and  _229
REMARK   95  A    between atoms: _229  and  _230
REMARK   96  A    between atoms: _230  and  _231
REMARK   97  A    between atoms: _231  and  _232
REMARK   98  A    between atoms: _232  and  _233
REMARK   99  A    between atoms: _237  and  _239
REMARK  100  A    between atoms: _239  and  _240
REMARK  101  A    between atoms: _239  and  _242
REMARK  102  A    between atoms: _242  and  _243
REMARK  103  A    between atoms: _248  and  _250
REMARK  104  A    between atoms: _250  and  _251
REMARK  105  A    between atoms: _253  and  _255
REMARK  106  A    between atoms: _255  and  _256
REMARK  107  A    between atoms: _255  and  _258
REMARK  108  A    between atoms: _258  and  _259
REMARK  109  A    between atoms: _262  and  _264
REMARK  110  A    between atoms: _264  and  _265
REMARK  111  A    between atoms: _264  and  _267
REMARK  112  A    between atoms: _267  and  _268
REMARK  113  A    between atoms: _271  and  _273
REMARK  114  A    between atoms: _273  and  _274
REMARK  115  A    between atoms: _273  and  _276
REMARK  116  A    between atoms: _276  and  _277
REMARK  117  A    between atoms: _277  and  _278
REMARK  118  A    between atoms: _278  and  _279
REMARK  119  A    between atoms: _288  and  _290
REMARK  120  A    between atoms: _290  and  _291
REMARK  121  A    between atoms: _290  and  _293
REMARK  122  A    between atoms: _293  and  _294
REMARK  123  A    between atoms: _299  and  _301
REMARK  124  A    between atoms: _301  and  _302
REMARK  125  A    between atoms: _301  and  _304
REMARK  126  A    between atoms: _304  and  _305
REMARK  127  A    between atoms: _311  and  _313
REMARK  128  A    between atoms: _313  and  _314
REMARK  129  A    between atoms: _313  and  _316
REMARK  130  A    between atoms: _316  and  _317
REMARK  131  A    between atoms: _322  and  _324
REMARK  132  A    between atoms: _324  and  _325
REMARK  133  A    between atoms: _324  and  _327
REMARK  134  A    between atoms: _327  and  _328
REMARK  135  A    between atoms: _331  and  _333
REMARK  136  A    between atoms: _333  and  _334
REMARK  137  A    between atoms: _337  and  _339
REMARK  138  A    between atoms: _339  and  _340
REMARK  139  A    between atoms: _343  and  _345
REMARK  140  A    between atoms: _345  and  _346
REMARK  141  A    between atoms: _345  and  _348
REMARK  142  A    between atoms: _348  and  _349
REMARK  143  A    between atoms: _349  and  _350
REMARK  144  A    between atoms: _350  and  _351
REMARK  145  A    between atoms: _360  and  _362
REMARK  146  A    between atoms: _362  and  _363
REMARK  147  A    between atoms: _362  and  _365
REMARK  148  A    between atoms: _365  and  _366
REMARK  149  A    between atoms: _371  and  _373
REMARK  150  A    between atoms: _373  and  _374
REMARK  151  A    between atoms: _373  and  _376
REMARK  152  A    between atoms: _378  and  _380
REMARK  153  A    between atoms: _380  and  _381
REMARK  154  A    between atoms: _380  and  _383
REMARK  155  A    between atoms: _383  and  _384
REMARK  156  A    between atoms: _384  and  _385
REMARK  157  A    between atoms: _387  and  _389
REMARK  158  A    between atoms: _389  and  _390
REMARK  159  A    between atoms: _389  and  _392
REMARK  160  A    between atoms: _392  and  _393
REMARK  161  A    between atoms: _396  and  _398
REMARK  162  A    between atoms: _398  and  _399
REMARK  163  A    between atoms: _398  and  _401
REMARK  164  A    between atoms: _401  and  _402
REMARK  165  A    between atoms: _405  and  _407
REMARK  166  A    between atoms: _407  and  _408
REMARK  167  A    between atoms: _407  and  _410
REMARK  168  A    between atoms: _410  and  _411
REMARK  169  A    between atoms: _411  and  _412
REMARK  170  A    between atoms: _412  and  _413
REMARK  171  A    between atoms: _413  and  _414
REMARK  172  A    between atoms: _418  and  _420
REMARK  173  A    between atoms: _420  and  _421
REMARK  174  A    between atoms: _420  and  _423
REMARK  175  A    between atoms: _426  and  _428
REMARK  176  A    between atoms: _428  and  _429
REMARK  177  A    between atoms: _432  and  _434
REMARK  178  A    between atoms: _434  and  _435
REMARK  179  A    between atoms: _434  and  _437
REMARK  180  A    between atoms: _437  and  _438
REMARK  181  A    between atoms: _441  and  _443
REMARK  182  A    between atoms: _443  and  _444
REMARK  183  A    between atoms: _443  and  _446
REMARK  184  A    between atoms: _446  and  _447
REMARK  185  A    between atoms: _453  and  _455
REMARK  186  A    between atoms: _455  and  _456
REMARK  187  A    between atoms: _455  and  _458
REMARK  188  A    between atoms: _458  and  _459
REMARK  189  A    between atoms: _462  and  _464
REMARK  190  A    between atoms: _464  and  _465
REMARK  191  A    between atoms: _468  and  _470
REMARK  192  A    between atoms: _470  and  _471
REMARK  193  A    between atoms: _470  and  _473
REMARK  194  A    between atoms: _473  and  _474
REMARK  195  A    between atoms: _474  and  _475
REMARK  196  A    between atoms: _475  and  _476
REMARK  197  A    between atoms: _485  and  _487
REMARK  198  A    between atoms: _487  and  _488
REMARK  199  A    between atoms: _487  and  _490
REMARK  200  A    between atoms: _490  and  _491
REMARK  201  A    between atoms: _494  and  _496
REMARK  202  A    between atoms: _496  and  _497
REMARK  203  A    between atoms: _496  and  _499
REMARK  204  A    between atoms: _499  and  _500
REMARK  205  A    between atoms: _500  and  _501
REMARK  206  A    between atoms: _503  and  _505
REMARK  207  A    between atoms: _505  and  _506
REMARK  208  A    between atoms: _505  and  _508
REMARK  209  A    between atoms: _508  and  _509
REMARK  210  A    between atoms: _514  and  _515
REMARK  211  A    between atoms: _517  and  _519
REMARK  212  A    between atoms: _519  and  _520
REMARK  213  A    between atoms: _519  and  _522
REMARK  214  A    between atoms: _522  and  _523
REMARK  215  A    between atoms: _526  and  _528
REMARK  216  A    between atoms: _528  and  _529
REMARK  217  A    between atoms: _528  and  _531
REMARK  218  A    between atoms: _531  and  _532
REMARK  219  A    between atoms: _532  and  _533
REMARK  220  A    between atoms: _533  and  _534
REMARK  221  A    between atoms: _534  and  _535
REMARK  222  A    between atoms: _539  and  _541
REMARK  223  A    between atoms: _541  and  _542
REMARK  224  A    between atoms: _541  and  _544
REMARK  225  A    between atoms: _544  and  _545
REMARK  226  A    between atoms: _550  and  _551
REMARK                            x       y       z     vdW  Elec       q    Type
REMARK                         _______ _______ _______ _____ _____    ______ ____
ROOT
ATOM      1  O   HOH     1      13.286  76.142  -4.334  0.00  0.00    +0.000 OA
ENDROOT
TORSDOF 0
REMARK  Name = ../refined-set-2016/3zc5/3zc5_pocket.pdb
REMARK  226 active torsions:
REMARK  status: ('A' for Active; 'I' for Inactive)
REMARK    1  A    between atoms: _1  and  _3
REMARK    2  A    between atoms: _3  and  _4
REMARK    3  A    between atoms: _3  and  _6
REMARK    4  A    between atoms: _9  and  _11
REMARK    5  A    between atoms: _11  and  _12
REMARK    6  A    between atoms: _11  and  _14
REMARK    7  A    between atoms: _14  and  _15
REMARK    8  A    between atoms: _18  and  _20
REMARK    9  A    between atoms: _20  and  _21
REMARK   10  A    between atoms: _23  and  _25
REMARK   11  A    between atoms: _25  and  _26
REMARK   12  A    between atoms: _25  and  _28
REMARK   13  A    between atoms: _28  and  _29
REMARK   14  A    between atoms: _29  and  _30
REMARK   15  A    between atoms: _30  and  _31
REMARK   16  A    between atoms: _40  and  _42
REMARK   17  A    between atoms: _42  and  _43
REMARK   18  A    between atoms: _45  and  _47
REMARK   19  A    between atoms: _47  and  _48
REMARK   20  A    between atoms: _47  and  _50
REMARK   21  A    between atoms: _52  and  _54
REMARK   22  A    between atoms: _54  and  _55
REMARK   23  A    between atoms: _54  and  _57
REMARK   24  A    between atoms: _60  and  _62
REMARK   25  A    between atoms: _62  and  _63
REMARK   26  A    between atoms: _62  and  _65
REMARK   27  A    between atoms: _65  and  _66
REMARK   28  A    between atoms: _71  and  _72
REMARK   29  A    between atoms: _74  and  _76
REMARK   30  A    between atoms: _76  and  _77
REMARK   31  A    between atoms: _76  and  _79
REMARK   32  A    between atoms: _79  and  _80
REMARK   33  A    between atoms: _85  and  _87
REMARK   34  A    between atoms: _87  and  _88
REMARK   35  A    between atoms: _90  and  _92
REMARK   36  A    between atoms: _92  and  _93
REMARK   37  A    between atoms: _92  and  _95
REMARK   38  A    between atoms: _95  and  _96
REMARK   39  A    between atoms: _101  and  _103
REMARK   40  A    between atoms: _103  and  _104
REMARK   41  A    between atoms: _103  and  _106
REMARK   42  A    between atoms: _108  and  _110
REMARK   43  A    between atoms: _110  and  _111
REMARK   44  A    between atoms: _114  and  _116
REMARK   45  A    between atoms: _116  and  _117
REMARK   46  A    between atoms: _116  and  _119
REMARK   47  A    between atoms: _122  and  _124
REMARK   48  A    between atoms: _124  and  _125
REMARK   49  A    between atoms: _124  and  _127
REMARK   50  A    between atoms: _127  and  _128
REMARK   51  A    between atoms: _128  and  _129
REMARK   52  A    between atoms: _129  and  _130
REMARK   53  A    between atoms: _130  and  _131
REMARK   54  A    between atoms: _135  and  _137
REMARK   55  A    between atoms: _137  and  _138
REMARK   56  A    between atoms: _137  and  _140
REMARK   57  A    between atoms: _140  and  _141
REMARK   58  A    between atoms: _143  and  _145
REMARK   59  A    between atoms: _145  and  _146
REMARK   60  A    between atoms: _145  and  _148
REMARK   61  A    between atoms: _148  and  _149
REMARK   62  A    between atoms: _149  and  _150
REMARK   63  A    between atoms: _152  and  _154
REMARK   64  A    between atoms: _154  and  _155
REMARK   65  A    between atoms: _154  and  _157
REMARK   66  A    between atoms: _157  and  _158
REMARK   67  A    between atoms: _161  and  _163
REMARK   68  A    between atoms: _163  and  _164
REMARK   69  A    between atoms: _163  and  _166
REMARK   70  A    between atoms: _166  and  _167
REMARK   71  A    between atoms: _169  and  _171
REMARK   72  A    between atoms: _171  and  _172
REMARK   73  A    between atoms: _171  and  _174
REMARK   74  A    between atoms: _177  and  _179
REMARK   75  A    between atoms: _179  and  _180
REMARK   76  A    between atoms: _179  and  _182
REMARK   77  A    between atoms: _185  and  _187
REMARK   78  A    between atoms: _187  and  _188
REMARK   79  A    between atoms: _187  and  _190
REMARK   80  A    between atoms: _190  and  _191
REMARK   81  A    between atoms: _195  and  _196
REMARK   82  A    between atoms: _201  and  _203
REMARK   83  A    between atoms: _203  and  _204
REMARK   84  A    between atoms: _203  and  _206
REMARK   85  A    between atoms: _206  and  _207
REMARK   86  A    between atoms: _212  and  _213
REMARK   87  A    between atoms: _215  and  _217
REMARK   88  A    between atoms: _217  and  _218
REMARK   89  A    between atoms: _217  and  _220
REMARK   90  A    between atoms: _220  and  _221
REMARK   91  A    between atoms: _221  and  _222
REMARK   92  A    between atoms: _224  and  _226
REMARK   93  A    between atoms: _226  and  _227
REMARK   94  A    between atoms: _226  and  _229
REMARK   95  A    between atoms: _229  and  _230
REMARK   96  A    between atoms: _230  and  _231
REMARK   97  A    between atoms: _231  and  _232
REMARK   98  A    between atoms: _232  and  _233
REMARK   99  A    between atoms: _237  and  _239
REMARK  100  A    between atoms: _239  and  _240
REMARK  101  A    between atoms: _239  and  _242
REMARK  102  A    between atoms: _242  and  _243
REMARK  103  A    between atoms: _248  and  _250
REMARK  104  A    between atoms: _250  and  _251
REMARK  105  A    between atoms: _253  and  _255
REMARK  106  A    between atoms: _255  and  _256
REMARK  107  A    between atoms: _255  and  _258
REMARK  108  A    between atoms: _258  and  _259
REMARK  109  A    between atoms: _262  and  _264
REMARK  110  A    between atoms: _264  and  _265
REMARK  111  A    between atoms: _264  and  _267
REMARK  112  A    between atoms: _267  and  _268
REMARK  113  A    between atoms: _271  and  _273
REMARK  114  A    between atoms: _273  and  _274
REMARK  115  A    between atoms: _273  and  _276
REMARK  116  A    between atoms: _276  and  _277
REMARK  117  A    between atoms: _277  and  _278
REMARK  118  A    between atoms: _278  and  _279
REMARK  119  A    between atoms: _288  and  _290
REMARK  120  A    between atoms: _290  and  _291
REMARK  121  A    between atoms: _290  and  _293
REMARK  122  A    between atoms: _293  and  _294
REMARK  123  A    between atoms: _299  and  _301
REMARK  124  A    between atoms: _301  and  _302
REMARK  125  A    between atoms: _301  and  _304
REMARK  126  A    between atoms: _304  and  _305
REMARK  127  A    between atoms: _311  and  _313
REMARK  128  A    between atoms: _313  and  _314
REMARK  129  A    between atoms: _313  and  _316
REMARK  130  A    between atoms: _316  and  _317
REMARK  131  A    between atoms: _322  and  _324
REMARK  132  A    between atoms: _324  and  _325
REMARK  133  A    between atoms: _324  and  _327
REMARK  134  A    between atoms: _327  and  _328
REMARK  135  A    between atoms: _331  and  _333
REMARK  136  A    between atoms: _333  and  _334
REMARK  137  A    between atoms: _337  and  _339
REMARK  138  A    between atoms: _339  and  _340
REMARK  139  A    between atoms: _343  and  _345
REMARK  140  A    between atoms: _345  and  _346
REMARK  141  A    between atoms: _345  and  _348
REMARK  142  A    between atoms: _348  and  _349
REMARK  143  A    between atoms: _349  and  _350
REMARK  144  A    between atoms: _350  and  _351
REMARK  145  A    between atoms: _360  and  _362
REMARK  146  A    between atoms: _362  and  _363
REMARK  147  A    between atoms: _362  and  _365
REMARK  148  A    between atoms: _365  and  _366
REMARK  149  A    between atoms: _371  and  _373
REMARK  150  A    between atoms: _373  and  _374
REMARK  151  A    between atoms: _373  and  _376
REMARK  152  A    between atoms: _378  and  _380
REMARK  153  A    between atoms: _380  and  _381
REMARK  154  A    between atoms: _380  and  _383
REMARK  155  A    between atoms: _383  and  _384
REMARK  156  A    between atoms: _384  and  _385
REMARK  157  A    between atoms: _387  and  _389
REMARK  158  A    between atoms: _389  and  _390
REMARK  159  A    between atoms: _389  and  _392
REMARK  160  A    between atoms: _392  and  _393
REMARK  161  A    between atoms: _396  and  _398
REMARK  162  A    between atoms: _398  and  _399
REMARK  163  A    between atoms: _398  and  _401
REMARK  164  A    between atoms: _401  and  _402
REMARK  165  A    between atoms: _405  and  _407
REMARK  166  A    between atoms: _407  and  _408
REMARK  167  A    between atoms: _407  and  _410
REMARK  168  A    between atoms: _410  and  _411
REMARK  169  A    between atoms: _411  and  _412
REMARK  170  A    between atoms: _412  and  _413
REMARK  171  A    between atoms: _413  and  _414
REMARK  172  A    between atoms: _418  and  _420
REMARK  173  A    between atoms: _420  and  _421
REMARK  174  A    between atoms: _420  and  _423
REMARK  175  A    between atoms: _426  and  _428
REMARK  176  A    between atoms: _428  and  _429
REMARK  177  A    between atoms: _432  and  _434
REMARK  178  A    between atoms: _434  and  _435
REMARK  179  A    between atoms: _434  and  _437
REMARK  180  A    between atoms: _437  and  _438
REMARK  181  A    between atoms: _441  and  _443
REMARK  182  A    between atoms: _443  and  _444
REMARK  183  A    between atoms: _443  and  _446
REMARK  184  A    between atoms: _446  and  _447
REMARK  185  A    between atoms: _453  and  _455
REMARK  186  A    between atoms: _455  and  _456
REMARK  187  A    between atoms: _455  and  _458
REMARK  188  A    between atoms: _458  and  _459
REMARK  189  A    between atoms: _462  and  _464
REMARK  190  A    between atoms: _464  and  _465
REMARK  191  A    between atoms: _468  and  _470
REMARK  192  A    between atoms: _470  and  _471
REMARK  193  A    between atoms: _470  and  _473
REMARK  194  A    between atoms: _473  and  _474
REMARK  195  A    between atoms: _474  and  _475
REMARK  196  A    between atoms: _475  and  _476
REMARK  197  A    between atoms: _485  and  _487
REMARK  198  A    between atoms: _487  and  _488
REMARK  199  A    between atoms: _487  and  _490
REMARK  200  A    between atoms: _490  and  _491
REMARK  201  A    between atoms: _494  and  _496
REMARK  202  A    between atoms: _496  and  _497
REMARK  203  A    between atoms: _496  and  _499
REMARK  204  A    between atoms: _499  and  _500
REMARK  205  A    between atoms: _500  and  _501
REMARK  206  A    between atoms: _503  and  _505
REMARK  207  A    between atoms: _505  and  _506
REMARK  208  A    between atoms: _505  and  _508
REMARK  209  A    between atoms: _508  and  _509
REMARK  210  A    between atoms: _514  and  _515
REMARK  211  A    between atoms: _517  and  _519
REMARK  212  A    between atoms: _519  and  _520
REMARK  213  A    between atoms: _519  and  _522
REMARK  214  A    between atoms: _522  and  _523
REMARK  215  A    between atoms: _526  and  _528
REMARK  216  A    between atoms: _528  and  _529
REMARK  217  A    between atoms: _528  and  _531
REMARK  218  A    between atoms: _531  and  _532
REMARK  219  A    between atoms: _532  and  _533
REMARK  220  A    between atoms: _533  and  _534
REMARK  221  A    between atoms: _534  and  _535
REMARK  222  A    between atoms: _539  and  _541
REMARK  223  A    between atoms: _541  and  _542
REMARK  224  A    between atoms: _541  and  _544
REMARK  225  A    between atoms: _544  and  _545
REMARK  226  A    between atoms: _550  and  _551
REMARK                            x       y       z     vdW  Elec       q    Type
REMARK                         _______ _______ _______ _____ _____    ______ ____
ROOT
ATOM      1  O   HOH     1      11.806  82.484  -2.852  0.00  0.00    +0.000 OA
ENDROOT
TORSDOF 0
