REMARK  Name = ../refined-set-2016/2qx0/2qx0_pocket.pdb
REMARK  146 active torsions:
REMARK  status: ('A' for Active; 'I' for Inactive)
REMARK    1  A    between atoms: _1  and  _3
REMARK    2  A    between atoms: _3  and  _4
REMARK    3  A    between atoms: _7  and  _9
REMARK    4  A    between atoms: _9  and  _10
REMARK    5  A    between atoms: _9  and  _12
REMARK    6  A    between atoms: _12  and  _13
REMARK    7  A    between atoms: _16  and  _18
REMARK    8  A    between atoms: _18  and  _19
REMARK    9  A    between atoms: _21  and  _23
REMARK   10  A    between atoms: _23  and  _24
REMARK   11  A    between atoms: _23  and  _26
REMARK   12  A    between atoms: _26  and  _27
REMARK   13  A    between atoms: _29  and  _31
REMARK   14  A    between atoms: _31  and  _32
REMARK   15  A    between atoms: _31  and  _34
REMARK   16  A    between atoms: _34  and  _35
REMARK   17  A    between atoms: _40  and  _42
REMARK   18  A    between atoms: _42  and  _43
REMARK   19  A    between atoms: _42  and  _45
REMARK   20  A    between atoms: _45  and  _46
REMARK   21  A    between atoms: _51  and  _52
REMARK   22  A    between atoms: _54  and  _56
REMARK   23  A    between atoms: _56  and  _57
REMARK   24  A    between atoms: _56  and  _59
REMARK   25  A    between atoms: _59  and  _60
REMARK   26  A    between atoms: _60  and  _61
REMARK   27  A    between atoms: _61  and  _62
REMARK   28  A    between atoms: _71  and  _73
REMARK   29  A    between atoms: _73  and  _74
REMARK   30  A    between atoms: _73  and  _76
REMARK   31  A    between atoms: _76  and  _77
REMARK   32  A    between atoms: _80  and  _82
REMARK   33  A    between atoms: _82  and  _83
REMARK   34  A    between atoms: _82  and  _85
REMARK   35  A    between atoms: _85  and  _86
REMARK   36  A    between atoms: _86  and  _87
REMARK   37  A    between atoms: _87  and  _88
REMARK   38  A    between atoms: _88  and  _89
REMARK   39  A    between atoms: _94  and  _95
REMARK   40  A    between atoms: _100  and  _102
REMARK   41  A    between atoms: _102  and  _103
REMARK   42  A    between atoms: _102  and  _105
REMARK   43  A    between atoms: _105  and  _106
REMARK   44  A    between atoms: _109  and  _111
REMARK   45  A    between atoms: _111  and  _112
REMARK   46  A    between atoms: _114  and  _116
REMARK   47  A    between atoms: _116  and  _117
REMARK   48  A    between atoms: _116  and  _119
REMARK   49  A    between atoms: _119  and  _120
REMARK   50  A    between atoms: _120  and  _121
REMARK   51  A    between atoms: _127  and  _128
REMARK   52  A    between atoms: _133  and  _135
REMARK   53  A    between atoms: _135  and  _136
REMARK   54  A    between atoms: _135  and  _138
REMARK   55  A    between atoms: _138  and  _139
REMARK   56  A    between atoms: _142  and  _144
REMARK   57  A    between atoms: _144  and  _145
REMARK   58  A    between atoms: _144  and  _147
REMARK   59  A    between atoms: _147  and  _148
REMARK   60  A    between atoms: _154  and  _156
REMARK   61  A    between atoms: _156  and  _157
REMARK   62  A    between atoms: _156  and  _159
REMARK   63  A    between atoms: _159  and  _160
REMARK   64  A    between atoms: _163  and  _165
REMARK   65  A    between atoms: _165  and  _166
REMARK   66  A    between atoms: _165  and  _168
REMARK   67  A    between atoms: _168  and  _169
REMARK   68  A    between atoms: _174  and  _176
REMARK   69  A    between atoms: _176  and  _177
REMARK   70  A    between atoms: _180  and  _182
REMARK   71  A    between atoms: _182  and  _183
REMARK   72  A    between atoms: _182  and  _185
REMARK   73  A    between atoms: _185  and  _186
REMARK   74  A    between atoms: _186  and  _187
REMARK   75  A    between atoms: _190  and  _192
REMARK   76  A    between atoms: _192  and  _193
REMARK   77  A    between atoms: _192  and  _195
REMARK   78  A    between atoms: _195  and  _196
REMARK   79  A    between atoms: _196  and  _197
REMARK   80  A    between atoms: _197  and  _198
REMARK   81  A    between atoms: _207  and  _209
REMARK   82  A    between atoms: _209  and  _210
REMARK   83  A    between atoms: _209  and  _212
REMARK   84  A    between atoms: _212  and  _213
REMARK   85  A    between atoms: _216  and  _218
REMARK   86  A    between atoms: _227  and  _230
REMARK   87  A    between atoms: _230  and  _231
REMARK   88  A    between atoms: _236  and  _237
REMARK   89  A    between atoms: _243  and  _245
REMARK   90  A    between atoms: _245  and  _246
REMARK   91  A    between atoms: _245  and  _248
REMARK   92  A    between atoms: _248  and  _249
REMARK   93  A    between atoms: _254  and  _256
REMARK   94  A    between atoms: _256  and  _257
REMARK   95  A    between atoms: _256  and  _259
REMARK   96  A    between atoms: _259  and  _260
REMARK   97  A    between atoms: _265  and  _266
REMARK   98  A    between atoms: _268  and  _270
REMARK   99  A    between atoms: _270  and  _271
REMARK  100  A    between atoms: _270  and  _273
REMARK  101  A    between atoms: _273  and  _274
REMARK  102  A    between atoms: _274  and  _275
REMARK  103  A    between atoms: _275  and  _276
REMARK  104  A    between atoms: _285  and  _287
REMARK  105  A    between atoms: _287  and  _288
REMARK  106  A    between atoms: _287  and  _290
REMARK  107  A    between atoms: _290  and  _291
REMARK  108  A    between atoms: _291  and  _292
REMARK  109  A    between atoms: _295  and  _297
REMARK  110  A    between atoms: _297  and  _298
REMARK  111  A    between atoms: _297  and  _300
REMARK  112  A    between atoms: _300  and  _301
REMARK  113  A    between atoms: _307  and  _309
REMARK  114  A    between atoms: _309  and  _310
REMARK  115  A    between atoms: _309  and  _312
REMARK  116  A    between atoms: _312  and  _313
REMARK  117  A    between atoms: _313  and  _314
REMARK  118  A    between atoms: _316  and  _318
REMARK  119  A    between atoms: _318  and  _319
REMARK  120  A    between atoms: _318  and  _321
REMARK  121  A    between atoms: _321  and  _322
REMARK  122  A    between atoms: _327  and  _329
REMARK  123  A    between atoms: _329  and  _330
REMARK  124  A    between atoms: _329  and  _332
REMARK  125  A    between atoms: _332  and  _333
REMARK  126  A    between atoms: _336  and  _338
REMARK  127  A    between atoms: _338  and  _339
REMARK  128  A    between atoms: _338  and  _341
REMARK  129  A    between atoms: _341  and  _342
REMARK  130  A    between atoms: _342  and  _343
REMARK  131  A    between atoms: _348  and  _350
REMARK  132  A    between atoms: _350  and  _351
REMARK  133  A    between atoms: _350  and  _353
REMARK  134  A    between atoms: _353  and  _354
REMARK  135  A    between atoms: _354  and  _355
REMARK  136  A    between atoms: _355  and  _356
REMARK  137  A    between atoms: _365  and  _367
REMARK  138  A    between atoms: _367  and  _368
REMARK  139  A    between atoms: _367  and  _370
REMARK  140  A    between atoms: _370  and  _371
REMARK  141  A    between atoms: _374  and  _376
REMARK  142  A    between atoms: _376  and  _377
REMARK  143  A    between atoms: _376  and  _379
REMARK  144  A    between atoms: _379  and  _380
REMARK  145  A    between atoms: _380  and  _381
REMARK  146  A    between atoms: _381  and  _382
REMARK                            x       y       z     vdW  Elec       q    Type
REMARK                         _______ _______ _______ _____ _____    ______ ____
ROOT
ATOM      1  C   GLY A   3       8.097   2.762   2.834  0.00  0.00    +0.243 C 
ATOM      2  O   GLY A   3       8.421   1.723   3.412  0.00  0.00    -0.273 OA
ATOM      3  N   SER A   4       8.898   3.816   2.734  0.00  0.00    -0.295 N 
ATOM      4  H   SER A   4       8.559   4.651   2.216  0.00  0.00    +0.150 HD
ENDROOT
BRANCH   1   5
ATOM      5  CA  GLY A   3       6.732   2.896   2.174  0.00  0.00    +0.176 C 
BRANCH   5   7
ATOM      6  C   LEU A   2       5.507   1.557   0.556  0.00  0.00    +0.241 C 
ATOM      7  N   GLY A   3       6.293   1.624   1.632  0.00  0.00    -0.295 N 
ATOM      8  H   GLY A   3       6.598   0.743   2.093  0.00  0.00    +0.150 HD
ATOM      9  O   LEU A   2       5.076   2.541  -0.043  0.00  0.00    -0.273 OA
BRANCH   6  10
ATOM     10  CA  LEU A   2       5.130   0.179   0.082  0.00  0.00    +0.149 C 
BRANCH  10  13
ATOM     11  C   ALA A   1       2.788  -0.348   0.445  0.00  0.00    +0.238 C 
ATOM     12  O   ALA A   1       3.064  -1.107   1.379  0.00  0.00    -0.274 OA
ATOM     13  N   LEU A   2       3.721   0.283  -0.264  0.00  0.00    -0.297 N 
ATOM     14  H   LEU A   2       3.437   0.861  -1.081  0.00  0.00    +0.150 HD
BRANCH  11  15
ATOM     15  CA  ALA A   1       1.334  -0.137   0.007  0.00  0.00    +0.145 C 
ATOM     16  CB  ALA A   1       0.570   0.708   1.028  0.00  0.00    +0.028 C 
BRANCH  15  17
ATOM     17  N   ALA A   1       0.722  -1.440  -0.096  0.00  0.00    -0.238 NA
ATOM     18  H   ALA A   1       0.321  -1.883   0.755  0.00  0.00    +0.142 HD
ENDBRANCH  15  17
ENDBRANCH  11  15
ENDBRANCH  10  13
BRANCH  10  19
ATOM     19  CB  LEU A   2       5.988  -0.190  -1.145  0.00  0.00    +0.029 C 
BRANCH  19  20
ATOM     20  CG  LEU A   2       5.880  -1.589  -1.765  0.00  0.00    +0.002 C 
ATOM     21  CD2 LEU A   2       4.523  -1.757  -2.415  0.00  0.00    +0.000 C 
ATOM     22  CD1 LEU A   2       6.978  -1.784  -2.819  0.00  0.00    +0.000 C 
ENDBRANCH  19  20
ENDBRANCH  10  19
ENDBRANCH   6  10
ENDBRANCH   5   7
ENDBRANCH   1   5
BRANCH   3  23
ATOM     23  CA  SER A   4      10.230   3.852   3.319  0.00  0.00    +0.178 C 
BRANCH  23  24
ATOM     24  C   SER A   4      10.642   5.314   3.365  0.00  0.00    +0.243 C 
ATOM     25  N   ASN A   5      11.172   5.766   4.497  0.00  0.00    -0.298 N 
ATOM     26  H   ASN A   5      11.272   5.138   5.320  0.00  0.00    +0.150 HD
ATOM     27  O   SER A   4      10.454   6.038   2.388  0.00  0.00    -0.273 OA
BRANCH  25  28
ATOM     28  CA  ASN A   5      11.609   7.148   4.569  0.00  0.00    +0.146 C 
BRANCH  28  29
ATOM     29  C   ASN A   5      13.054   7.252   5.040  0.00  0.00    +0.227 C 
ATOM     30  O   ASN A   5      13.413   8.129   5.820  0.00  0.00    -0.286 OA
ENDBRANCH  28  29
BRANCH  28  31
ATOM     31  CB  ASN A   5      10.649   8.001   5.429  0.00  0.00    +0.112 C 
BRANCH  31  32
ATOM     32  CG  ASN A   5      10.788   7.758   6.916  0.00  0.00    +0.222 C 
ATOM     33  ND2 ASN A   5      10.702   8.834   7.699  0.00  0.00    -0.329 N 
ATOM     34 HD21 ASN A   5      10.765   8.732   8.732  0.00  0.00    +0.145 HD
ATOM     35 HD22 ASN A   5      10.572   9.775   7.277  0.00  0.00    +0.145 HD
ATOM     36  OD1 ASN A   5      10.941   6.630   7.362  0.00  0.00    -0.275 OA
ENDBRANCH  31  32
ENDBRANCH  28  31
ENDBRANCH  25  28
ENDBRANCH  23  24
BRANCH  23  37
ATOM     37  CB  SER A   4      11.219   3.063   2.448  0.00  0.00    +0.166 C 
BRANCH  37  38
ATOM     38  OG  SER A   4      12.566   3.284   2.853  0.00  0.00    -0.380 OA
ATOM     39  H   SER A   4      12.678   2.996   3.793  0.00  0.00    +0.211 HD
ENDBRANCH  37  38
ENDBRANCH  23  37
ENDBRANCH   3  23
TORSDOF 16
REMARK  Name = ../refined-set-2016/2qx0/2qx0_pocket.pdb
REMARK  146 active torsions:
REMARK  status: ('A' for Active; 'I' for Inactive)
REMARK    1  A    between atoms: _1  and  _3
REMARK    2  A    between atoms: _3  and  _4
REMARK    3  A    between atoms: _7  and  _9
REMARK    4  A    between atoms: _9  and  _10
REMARK    5  A    between atoms: _9  and  _12
REMARK    6  A    between atoms: _12  and  _13
REMARK    7  A    between atoms: _16  and  _18
REMARK    8  A    between atoms: _18  and  _19
REMARK    9  A    between atoms: _21  and  _23
REMARK   10  A    between atoms: _23  and  _24
REMARK   11  A    between atoms: _23  and  _26
REMARK   12  A    between atoms: _26  and  _27
REMARK   13  A    between atoms: _29  and  _31
REMARK   14  A    between atoms: _31  and  _32
REMARK   15  A    between atoms: _31  and  _34
REMARK   16  A    between atoms: _34  and  _35
REMARK   17  A    between atoms: _40  and  _42
REMARK   18  A    between atoms: _42  and  _43
REMARK   19  A    between atoms: _42  and  _45
REMARK   20  A    between atoms: _45  and  _46
REMARK   21  A    between atoms: _51  and  _52
REMARK   22  A    between atoms: _54  and  _56
REMARK   23  A    between atoms: _56  and  _57
REMARK   24  A    between atoms: _56  and  _59
REMARK   25  A    between atoms: _59  and  _60
REMARK   26  A    between atoms: _60  and  _61
REMARK   27  A    between atoms: _61  and  _62
REMARK   28  A    between atoms: _71  and  _73
REMARK   29  A    between atoms: _73  and  _74
REMARK   30  A    between atoms: _73  and  _76
REMARK   31  A    between atoms: _76  and  _77
REMARK   32  A    between atoms: _80  and  _82
REMARK   33  A    between atoms: _82  and  _83
REMARK   34  A    between atoms: _82  and  _85
REMARK   35  A    between atoms: _85  and  _86
REMARK   36  A    between atoms: _86  and  _87
REMARK   37  A    between atoms: _87  and  _88
REMARK   38  A    between atoms: _88  and  _89
REMARK   39  A    between atoms: _94  and  _95
REMARK   40  A    between atoms: _100  and  _102
REMARK   41  A    between atoms: _102  and  _103
REMARK   42  A    between atoms: _102  and  _105
REMARK   43  A    between atoms: _105  and  _106
REMARK   44  A    between atoms: _109  and  _111
REMARK   45  A    between atoms: _111  and  _112
REMARK   46  A    between atoms: _114  and  _116
REMARK   47  A    between atoms: _116  and  _117
REMARK   48  A    between atoms: _116  and  _119
REMARK   49  A    between atoms: _119  and  _120
REMARK   50  A    between atoms: _120  and  _121
REMARK   51  A    between atoms: _127  and  _128
REMARK   52  A    between atoms: _133  and  _135
REMARK   53  A    between atoms: _135  and  _136
REMARK   54  A    between atoms: _135  and  _138
REMARK   55  A    between atoms: _138  and  _139
REMARK   56  A    between atoms: _142  and  _144
REMARK   57  A    between atoms: _144  and  _145
REMARK   58  A    between atoms: _144  and  _147
REMARK   59  A    between atoms: _147  and  _148
REMARK   60  A    between atoms: _154  and  _156
REMARK   61  A    between atoms: _156  and  _157
REMARK   62  A    between atoms: _156  and  _159
REMARK   63  A    between atoms: _159  and  _160
REMARK   64  A    between atoms: _163  and  _165
REMARK   65  A    between atoms: _165  and  _166
REMARK   66  A    between atoms: _165  and  _168
REMARK   67  A    between atoms: _168  and  _169
REMARK   68  A    between atoms: _174  and  _176
REMARK   69  A    between atoms: _176  and  _177
REMARK   70  A    between atoms: _180  and  _182
REMARK   71  A    between atoms: _182  and  _183
REMARK   72  A    between atoms: _182  and  _185
REMARK   73  A    between atoms: _185  and  _186
REMARK   74  A    between atoms: _186  and  _187
REMARK   75  A    between atoms: _190  and  _192
REMARK   76  A    between atoms: _192  and  _193
REMARK   77  A    between atoms: _192  and  _195
REMARK   78  A    between atoms: _195  and  _196
REMARK   79  A    between atoms: _196  and  _197
REMARK   80  A    between atoms: _197  and  _198
REMARK   81  A    between atoms: _207  and  _209
REMARK   82  A    between atoms: _209  and  _210
REMARK   83  A    between atoms: _209  and  _212
REMARK   84  A    between atoms: _212  and  _213
REMARK   85  A    between atoms: _216  and  _218
REMARK   86  A    between atoms: _227  and  _230
REMARK   87  A    between atoms: _230  and  _231
REMARK   88  A    between atoms: _236  and  _237
REMARK   89  A    between atoms: _243  and  _245
REMARK   90  A    between atoms: _245  and  _246
REMARK   91  A    between atoms: _245  and  _248
REMARK   92  A    between atoms: _248  and  _249
REMARK   93  A    between atoms: _254  and  _256
REMARK   94  A    between atoms: _256  and  _257
REMARK   95  A    between atoms: _256  and  _259
REMARK   96  A    between atoms: _259  and  _260
REMARK   97  A    between atoms: _265  and  _266
REMARK   98  A    between atoms: _268  and  _270
REMARK   99  A    between atoms: _270  and  _271
REMARK  100  A    between atoms: _270  and  _273
REMARK  101  A    between atoms: _273  and  _274
REMARK  102  A    between atoms: _274  and  _275
REMARK  103  A    between atoms: _275  and  _276
REMARK  104  A    between atoms: _285  and  _287
REMARK  105  A    between atoms: _287  and  _288
REMARK  106  A    between atoms: _287  and  _290
REMARK  107  A    between atoms: _290  and  _291
REMARK  108  A    between atoms: _291  and  _292
REMARK  109  A    between atoms: _295  and  _297
REMARK  110  A    between atoms: _297  and  _298
REMARK  111  A    between atoms: _297  and  _300
REMARK  112  A    between atoms: _300  and  _301
REMARK  113  A    between atoms: _307  and  _309
REMARK  114  A    between atoms: _309  and  _310
REMARK  115  A    between atoms: _309  and  _312
REMARK  116  A    between atoms: _312  and  _313
REMARK  117  A    between atoms: _313  and  _314
REMARK  118  A    between atoms: _316  and  _318
REMARK  119  A    between atoms: _318  and  _319
REMARK  120  A    between atoms: _318  and  _321
REMARK  121  A    between atoms: _321  and  _322
REMARK  122  A    between atoms: _327  and  _329
REMARK  123  A    between atoms: _329  and  _330
REMARK  124  A    between atoms: _329  and  _332
REMARK  125  A    between atoms: _332  and  _333
REMARK  126  A    between atoms: _336  and  _338
REMARK  127  A    between atoms: _338  and  _339
REMARK  128  A    between atoms: _338  and  _341
REMARK  129  A    between atoms: _341  and  _342
REMARK  130  A    between atoms: _342  and  _343
REMARK  131  A    between atoms: _348  and  _350
REMARK  132  A    between atoms: _350  and  _351
REMARK  133  A    between atoms: _350  and  _353
REMARK  134  A    between atoms: _353  and  _354
REMARK  135  A    between atoms: _354  and  _355
REMARK  136  A    between atoms: _355  and  _356
REMARK  137  A    between atoms: _365  and  _367
REMARK  138  A    between atoms: _367  and  _368
REMARK  139  A    between atoms: _367  and  _370
REMARK  140  A    between atoms: _370  and  _371
REMARK  141  A    between atoms: _374  and  _376
REMARK  142  A    between atoms: _376  and  _377
REMARK  143  A    between atoms: _376  and  _379
REMARK  144  A    between atoms: _379  and  _380
REMARK  145  A    between atoms: _380  and  _381
REMARK  146  A    between atoms: _381  and  _382
REMARK                            x       y       z     vdW  Elec       q    Type
REMARK                         _______ _______ _______ _____ _____    ______ ____
ROOT
ATOM      1  CA  THR A   3       5.258  12.257   0.402  0.00  0.00    +0.176 C 
ENDROOT
BRANCH   1   3
ATOM      2  C   ARG A   2       6.503  12.200  -1.681  0.00  0.00    +0.241 C 
ATOM      3  N   THR A   3       6.362  11.788  -0.427  0.00  0.00    -0.295 N 
ATOM      4  H   THR A   3       7.051  11.119  -0.029  0.00  0.00    +0.150 HD
ATOM      5  O   ARG A   2       5.734  13.005  -2.214  0.00  0.00    -0.273 OA
BRANCH   2   6
ATOM      6  CA  ARG A   2       7.666  11.615  -2.467  0.00  0.00    +0.149 C 
BRANCH   6   9
ATOM      7  C   TYR A   1       6.691   9.718  -3.669  0.00  0.00    +0.239 C 
ATOM      8  O   TYR A   1       6.979   8.919  -2.781  0.00  0.00    -0.274 OA
ATOM      9  N   ARG A   2       6.999  11.014  -3.620  0.00  0.00    -0.297 N 
ATOM     10  H   ARG A   2       6.756  11.619  -4.431  0.00  0.00    +0.150 HD
BRANCH   7  11
ATOM     11  CA  TYR A   1       5.930   9.267  -4.911  0.00  0.00    +0.149 C 
BRANCH  11  12
ATOM     12  N   TYR A   1       6.288   7.948  -5.448  0.00  0.00    -0.238 NA
ATOM     13  H   TYR A   1       6.266   7.123  -4.815  0.00  0.00    +0.142 HD
ENDBRANCH  11  12
BRANCH  11  14
ATOM     14  CB  TYR A   1       4.439   9.317  -4.561  0.00  0.00    +0.053 C 
BRANCH  14  15
ATOM     15  CG  TYR A   1       3.518   9.368  -5.747  0.00  0.00    -0.020 A 
ATOM     16  CD2 TYR A   1       2.802   8.238  -6.140  0.00  0.00    -0.001 A 
ATOM     17  CE2 TYR A   1       1.976   8.260  -7.255  0.00  0.00    +0.036 A 
ATOM     18  CZ  TYR A   1       1.855   9.419  -7.995  0.00  0.00    +0.134 A 
ATOM     19  CE1 TYR A   1       2.554  10.563  -7.629  0.00  0.00    +0.036 A 
ATOM     20  CD1 TYR A   1       3.383  10.530  -6.505  0.00  0.00    -0.001 A 
BRANCH  18  21
ATOM     21  OH  TYR A   1       1.030   9.425  -9.098  0.00  0.00    -0.506 OA
ATOM     22  HH  TYR A   1       0.105   9.211  -8.818  0.00  0.00    +0.292 HD
ENDBRANCH  18  21
ENDBRANCH  14  15
ENDBRANCH  11  14
ENDBRANCH   7  11
ENDBRANCH   6   9
BRANCH   6  23
ATOM     23  CB  ARG A   2       8.607  12.743  -2.898  0.00  0.00    +0.033 C 
BRANCH  23  24
ATOM     24  CG  ARG A   2       9.183  13.552  -1.731  0.00  0.00    +0.045 C 
BRANCH  24  25
ATOM     25  CD  ARG A   2      10.070  14.680  -2.232  0.00  0.00    +0.174 C 
BRANCH  25  26
ATOM     26  NE  ARG A   2      11.264  14.171  -2.896  0.00  0.00    -0.265 N 
ATOM     27  CZ  ARG A   2      12.279  13.599  -2.260  0.00  0.00    +0.342 C 
ATOM     28  NH2 ARG A   2      12.247  13.469  -0.941  0.00  0.00    -0.292 N 
ATOM     29 HH21 ARG A   2      11.426  13.815  -0.404  0.00  0.00    +0.255 HD
ATOM     30 HH22 ARG A   2      13.043  13.021  -0.443  0.00  0.00    +0.255 HD
ATOM     31  NH1 ARG A   2      13.319  13.142  -2.941  0.00  0.00    -0.292 N 
ATOM     32 HH11 ARG A   2      14.113  12.694  -2.440  0.00  0.00    +0.255 HD
ATOM     33 HH12 ARG A   2      13.342  13.231  -3.977  0.00  0.00    +0.255 HD
ATOM     34  HE  ARG A   2      11.324  14.262  -3.930  0.00  0.00    +0.259 HD
ENDBRANCH  25  26
ENDBRANCH  24  25
ENDBRANCH  23  24
ENDBRANCH   6  23
ENDBRANCH   2   6
ENDBRANCH   1   3
BRANCH   1  35
ATOM     35  C   THR A   3       5.700  12.727   1.786  0.00  0.00    +0.243 C 
ATOM     36  N   LYS A   4       4.862  13.550   2.407  0.00  0.00    -0.297 N 
ATOM     37  H   LYS A   4       3.971  13.808   1.937  0.00  0.00    +0.150 HD
ATOM     38  O   THR A   3       6.767  12.350   2.278  0.00  0.00    -0.273 OA
BRANCH  36  39
ATOM     39  CA  LYS A   4       5.150  14.106   3.728  0.00  0.00    +0.149 C 
BRANCH  39  40
ATOM     40  C   LYS A   4       4.792  13.124   4.846  0.00  0.00    +0.244 C 
ATOM     41  N   PRO A   5       5.744  12.851   5.754  0.00  0.00    -0.272 N 
ATOM     42  CA  PRO A   5       5.519  11.923   6.865  0.00  0.00    +0.152 C 
ATOM     43  CB  PRO A   5       6.916  11.774   7.477  0.00  0.00    +0.031 C 
ATOM     44  CG  PRO A   5       7.528  13.107   7.240  0.00  0.00    +0.024 C 
ATOM     45  CD  PRO A   5       7.099  13.429   5.819  0.00  0.00    +0.094 C 
ATOM     46  O   LYS A   4       3.664  12.638   4.919  0.00  0.00    -0.273 OA
BRANCH  42  47
ATOM     47  C   PRO A   5       4.481  12.401   7.876  0.00  0.00    +0.241 C 
ATOM     48  N   LEU A   6       3.651  11.473   8.334  0.00  0.00    -0.297 N 
ATOM     49  H   LEU A   6       3.746  10.498   7.986  0.00  0.00    +0.150 HD
ATOM     50  O   PRO A   5       4.435  13.574   8.231  0.00  0.00    -0.273 OA
BRANCH  48  51
ATOM     51  CA  LEU A   6       2.611  11.775   9.308  0.00  0.00    +0.149 C 
BRANCH  51  52
ATOM     52  C   LEU A   6       3.234  11.842  10.700  0.00  0.00    +0.241 C 
ATOM     53  N   GLY A   7       2.644  12.629  11.589  0.00  0.00    -0.296 N 
ATOM     54  H   GLY A   7       1.806  13.184  11.322  0.00  0.00    +0.150 HD
ATOM     55  O   LEU A   6       4.242  11.192  10.966  0.00  0.00    -0.273 OA
BRANCH  53  56
ATOM     56  CA  GLY A   7       3.176  12.711  12.936  0.00  0.00    +0.163 C 
BRANCH  56  57
ATOM     57  C   GLY A   7       3.963  13.973  13.227  0.00  0.00    +0.229 C 
ATOM     58  O   GLY A   7       4.532  14.579  12.320  0.00  0.00    -0.286 OA
ENDBRANCH  56  57
ENDBRANCH  53  56
ENDBRANCH  51  52
BRANCH  51  59
ATOM     59  CB  LEU A   6       1.534  10.679   9.280  0.00  0.00    +0.029 C 
BRANCH  59  60
ATOM     60  CG  LEU A   6       0.692  10.456   8.015  0.00  0.00    +0.002 C 
ATOM     61  CD2 LEU A   6      -0.192   9.218   8.212  0.00  0.00    +0.000 C 
ATOM     62  CD1 LEU A   6      -0.176  11.675   7.738  0.00  0.00    +0.000 C 
ENDBRANCH  59  60
ENDBRANCH  51  59
ENDBRANCH  48  51
ENDBRANCH  42  47
ENDBRANCH  39  40
BRANCH  39  63
ATOM     63  CB  LYS A   4       4.364  15.406   3.922  0.00  0.00    +0.029 C 
BRANCH  63  64
ATOM     64  CG  LYS A   4       4.203  16.234   2.653  0.00  0.00    +0.000 C 
BRANCH  64  65
ATOM     65  CD  LYS A   4       5.540  16.617   2.023  0.00  0.00    -0.024 C 
BRANCH  65  66
ATOM     66  CE  LYS A   4       6.369  17.508   2.934  0.00  0.00    -0.086 C 
BRANCH  66  67
ATOM     67  NZ  LYS A   4       7.535  18.105   2.203  0.00  0.00    +0.380 N 
ATOM     68  HZ1 LYS A   4       8.079  18.707   2.854  0.00  0.00    -0.089 HD
ATOM     69  HZ2 LYS A   4       8.144  17.343   1.843  0.00  0.00    -0.089 HD
ATOM     70  HZ3 LYS A   4       7.187  18.678   1.408  0.00  0.00    -0.089 HD
ENDBRANCH  66  67
ENDBRANCH  65  66
ENDBRANCH  64  65
ENDBRANCH  63  64
ENDBRANCH  39  63
ENDBRANCH  36  39
ENDBRANCH   1  35
BRANCH   1  71
ATOM     71  CB  THR A   3       4.197  11.145   0.554  0.00  0.00    +0.137 C 
ATOM     72  CG2 THR A   3       3.743  10.674  -0.809  0.00  0.00    +0.034 C 
BRANCH  71  73
ATOM     73  OG1 THR A   3       4.759  10.034   1.263  0.00  0.00    -0.382 OA
ATOM     74  HG1 THR A   3       4.075   9.324   1.358  0.00  0.00    +0.210 HD
ENDBRANCH  71  73
ENDBRANCH   1  71
TORSDOF 29
REMARK  Name = ../refined-set-2016/2qx0/2qx0_pocket.pdb
REMARK  146 active torsions:
REMARK  status: ('A' for Active; 'I' for Inactive)
REMARK    1  A    between atoms: _1  and  _3
REMARK    2  A    between atoms: _3  and  _4
REMARK    3  A    between atoms: _7  and  _9
REMARK    4  A    between atoms: _9  and  _10
REMARK    5  A    between atoms: _9  and  _12
REMARK    6  A    between atoms: _12  and  _13
REMARK    7  A    between atoms: _16  and  _18
REMARK    8  A    between atoms: _18  and  _19
REMARK    9  A    between atoms: _21  and  _23
REMARK   10  A    between atoms: _23  and  _24
REMARK   11  A    between atoms: _23  and  _26
REMARK   12  A    between atoms: _26  and  _27
REMARK   13  A    between atoms: _29  and  _31
REMARK   14  A    between atoms: _31  and  _32
REMARK   15  A    between atoms: _31  and  _34
REMARK   16  A    between atoms: _34  and  _35
REMARK   17  A    between atoms: _40  and  _42
REMARK   18  A    between atoms: _42  and  _43
REMARK   19  A    between atoms: _42  and  _45
REMARK   20  A    between atoms: _45  and  _46
REMARK   21  A    between atoms: _51  and  _52
REMARK   22  A    between atoms: _54  and  _56
REMARK   23  A    between atoms: _56  and  _57
REMARK   24  A    between atoms: _56  and  _59
REMARK   25  A    between atoms: _59  and  _60
REMARK   26  A    between atoms: _60  and  _61
REMARK   27  A    between atoms: _61  and  _62
REMARK   28  A    between atoms: _71  and  _73
REMARK   29  A    between atoms: _73  and  _74
REMARK   30  A    between atoms: _73  and  _76
REMARK   31  A    between atoms: _76  and  _77
REMARK   32  A    between atoms: _80  and  _82
REMARK   33  A    between atoms: _82  and  _83
REMARK   34  A    between atoms: _82  and  _85
REMARK   35  A    between atoms: _85  and  _86
REMARK   36  A    between atoms: _86  and  _87
REMARK   37  A    between atoms: _87  and  _88
REMARK   38  A    between atoms: _88  and  _89
REMARK   39  A    between atoms: _94  and  _95
REMARK   40  A    between atoms: _100  and  _102
REMARK   41  A    between atoms: _102  and  _103
REMARK   42  A    between atoms: _102  and  _105
REMARK   43  A    between atoms: _105  and  _106
REMARK   44  A    between atoms: _109  and  _111
REMARK   45  A    between atoms: _111  and  _112
REMARK   46  A    between atoms: _114  and  _116
REMARK   47  A    between atoms: _116  and  _117
REMARK   48  A    between atoms: _116  and  _119
REMARK   49  A    between atoms: _119  and  _120
REMARK   50  A    between atoms: _120  and  _121
REMARK   51  A    between atoms: _127  and  _128
REMARK   52  A    between atoms: _133  and  _135
REMARK   53  A    between atoms: _135  and  _136
REMARK   54  A    between atoms: _135  and  _138
REMARK   55  A    between atoms: _138  and  _139
REMARK   56  A    between atoms: _142  and  _144
REMARK   57  A    between atoms: _144  and  _145
REMARK   58  A    between atoms: _144  and  _147
REMARK   59  A    between atoms: _147  and  _148
REMARK   60  A    between atoms: _154  and  _156
REMARK   61  A    between atoms: _156  and  _157
REMARK   62  A    between atoms: _156  and  _159
REMARK   63  A    between atoms: _159  and  _160
REMARK   64  A    between atoms: _163  and  _165
REMARK   65  A    between atoms: _165  and  _166
REMARK   66  A    between atoms: _165  and  _168
REMARK   67  A    between atoms: _168  and  _169
REMARK   68  A    between atoms: _174  and  _176
REMARK   69  A    between atoms: _176  and  _177
REMARK   70  A    between atoms: _180  and  _182
REMARK   71  A    between atoms: _182  and  _183
REMARK   72  A    between atoms: _182  and  _185
REMARK   73  A    between atoms: _185  and  _186
REMARK   74  A    between atoms: _186  and  _187
REMARK   75  A    between atoms: _190  and  _192
REMARK   76  A    between atoms: _192  and  _193
REMARK   77  A    between atoms: _192  and  _195
REMARK   78  A    between atoms: _195  and  _196
REMARK   79  A    between atoms: _196  and  _197
REMARK   80  A    between atoms: _197  and  _198
REMARK   81  A    between atoms: _207  and  _209
REMARK   82  A    between atoms: _209  and  _210
REMARK   83  A    between atoms: _209  and  _212
REMARK   84  A    between atoms: _212  and  _213
REMARK   85  A    between atoms: _216  and  _218
REMARK   86  A    between atoms: _227  and  _230
REMARK   87  A    between atoms: _230  and  _231
REMARK   88  A    between atoms: _236  and  _237
REMARK   89  A    between atoms: _243  and  _245
REMARK   90  A    between atoms: _245  and  _246
REMARK   91  A    between atoms: _245  and  _248
REMARK   92  A    between atoms: _248  and  _249
REMARK   93  A    between atoms: _254  and  _256
REMARK   94  A    between atoms: _256  and  _257
REMARK   95  A    between atoms: _256  and  _259
REMARK   96  A    between atoms: _259  and  _260
REMARK   97  A    between atoms: _265  and  _266
REMARK   98  A    between atoms: _268  and  _270
REMARK   99  A    between atoms: _270  and  _271
REMARK  100  A    between atoms: _270  and  _273
REMARK  101  A    between atoms: _273  and  _274
REMARK  102  A    between atoms: _274  and  _275
REMARK  103  A    between atoms: _275  and  _276
REMARK  104  A    between atoms: _285  and  _287
REMARK  105  A    between atoms: _287  and  _288
REMARK  106  A    between atoms: _287  and  _290
REMARK  107  A    between atoms: _290  and  _291
REMARK  108  A    between atoms: _291  and  _292
REMARK  109  A    between atoms: _295  and  _297
REMARK  110  A    between atoms: _297  and  _298
REMARK  111  A    between atoms: _297  and  _300
REMARK  112  A    between atoms: _300  and  _301
REMARK  113  A    between atoms: _307  and  _309
REMARK  114  A    between atoms: _309  and  _310
REMARK  115  A    between atoms: _309  and  _312
REMARK  116  A    between atoms: _312  and  _313
REMARK  117  A    between atoms: _313  and  _314
REMARK  118  A    between atoms: _316  and  _318
REMARK  119  A    between atoms: _318  and  _319
REMARK  120  A    between atoms: _318  and  _321
REMARK  121  A    between atoms: _321  and  _322
REMARK  122  A    between atoms: _327  and  _329
REMARK  123  A    between atoms: _329  and  _330
REMARK  124  A    between atoms: _329  and  _332
REMARK  125  A    between atoms: _332  and  _333
REMARK  126  A    between atoms: _336  and  _338
REMARK  127  A    between atoms: _338  and  _339
REMARK  128  A    between atoms: _338  and  _341
REMARK  129  A    between atoms: _341  and  _342
REMARK  130  A    between atoms: _342  and  _343
REMARK  131  A    between atoms: _348  and  _350
REMARK  132  A    between atoms: _350  and  _351
REMARK  133  A    between atoms: _350  and  _353
REMARK  134  A    between atoms: _353  and  _354
REMARK  135  A    between atoms: _354  and  _355
REMARK  136  A    between atoms: _355  and  _356
REMARK  137  A    between atoms: _365  and  _367
REMARK  138  A    between atoms: _367  and  _368
REMARK  139  A    between atoms: _367  and  _370
REMARK  140  A    between atoms: _370  and  _371
REMARK  141  A    between atoms: _374  and  _376
REMARK  142  A    between atoms: _376  and  _377
REMARK  143  A    between atoms: _376  and  _379
REMARK  144  A    between atoms: _379  and  _380
REMARK  145  A    between atoms: _380  and  _381
REMARK  146  A    between atoms: _381  and  _382
REMARK                            x       y       z     vdW  Elec       q    Type
REMARK                         _______ _______ _______ _____ _____    ______ ____
ROOT
ATOM      1  CA  PHE A   4       8.551   9.080   2.514  0.00  0.00    +0.153 C 
ENDROOT
BRANCH   1   4
ATOM      2  C   ASP A   3       9.980  10.915   3.175  0.00  0.00    +0.241 C 
ATOM      3  O   ASP A   3      10.972  10.182   3.261  0.00  0.00    -0.273 OA
ATOM      4  N   PHE A   4       8.780  10.478   2.824  0.00  0.00    -0.297 N 
ATOM      5  H   PHE A   4       7.988  11.150   2.770  0.00  0.00    +0.150 HD
BRANCH   2   6
ATOM      6  CA  ASP A   3      10.085  12.403   3.448  0.00  0.00    +0.160 C 
BRANCH   6   9
ATOM      7  C   PRO A   2      11.476  12.082   5.405  0.00  0.00    +0.241 C 
ATOM      8  O   PRO A   2      10.597  11.434   5.972  0.00  0.00    -0.273 OA
ATOM      9  N   ASP A   3      11.323  12.606   4.190  0.00  0.00    -0.297 N 
ATOM     10  H   ASP A   3      12.092  13.164   3.768  0.00  0.00    +0.150 HD
BRANCH   7  17
ATOM     11  C   GLN A   1      11.947  13.102   8.248  0.00  0.00    +0.241 C 
ATOM     12  O   GLN A   1      11.229  13.935   7.694  0.00  0.00    -0.273 OA
ATOM     13  N   PRO A   2      12.746  12.276   7.552  0.00  0.00    -0.272 N 
ATOM     14  CD  PRO A   2      13.645  11.236   8.083  0.00  0.00    +0.094 C 
ATOM     15  CG  PRO A   2      14.660  11.115   6.988  0.00  0.00    +0.024 C 
ATOM     16  CB  PRO A   2      13.806  11.200   5.757  0.00  0.00    +0.031 C 
ATOM     17  CA  PRO A   2      12.817  12.316   6.086  0.00  0.00    +0.152 C 
BRANCH  11  18
ATOM     18  CA  GLN A   1      11.957  12.980   9.774  0.00  0.00    +0.145 C 
BRANCH  18  19
ATOM     19  N   GLN A   1      11.166  14.039  10.384  0.00  0.00    -0.238 NA
ATOM     20  H   GLN A   1      10.359  14.437   9.863  0.00  0.00    +0.142 HD
ENDBRANCH  18  19
BRANCH  18  21
ATOM     21  CB  GLN A   1      11.419  11.617  10.226  0.00  0.00    +0.036 C 
BRANCH  21  22
ATOM     22  CG  GLN A   1       9.954  11.363   9.905  0.00  0.00    +0.087 C 
BRANCH  22  23
ATOM     23  CD  GLN A   1       9.437  10.085  10.551  0.00  0.00    +0.219 C 
ATOM     24  NE2 GLN A   1       8.260  10.164  11.164  0.00  0.00    -0.329 N 
ATOM     25 HE21 GLN A   1       7.854   9.323  11.621  0.00  0.00    +0.145 HD
ATOM     26 HE22 GLN A   1       7.745  11.067  11.186  0.00  0.00    +0.145 HD
ATOM     27  OE1 GLN A   1      10.088   9.038  10.496  0.00  0.00    -0.275 OA
ENDBRANCH  22  23
ENDBRANCH  21  22
ENDBRANCH  18  21
ENDBRANCH  11  18
ENDBRANCH   7  17
ENDBRANCH   6   9
BRANCH   6  28
ATOM     28  CB  ASP A   3      10.094  13.118   2.093  0.00  0.00    +0.143 C 
BRANCH  28  29
ATOM     29  CG  ASP A   3      10.140  14.624   2.210  0.00  0.00    +0.367 C 
ATOM     30  OD2 ASP A   3       9.588  15.182   3.181  0.00  0.00    -0.246 OA
ATOM     31  OD1 ASP A   3      10.714  15.251   1.298  0.00  0.00    -0.246 OA
ENDBRANCH  28  29
ENDBRANCH   6  28
ENDBRANCH   2   6
ENDBRANCH   1   4
BRANCH   1  32
ATOM     32  C   PHE A   4       8.553   8.845   1.014  0.00  0.00    +0.241 C 
ATOM     33  N   LEU A   5       8.922   7.647   0.681  0.00  0.00    -0.297 N 
ATOM     34  H   LEU A   5       9.270   7.006   1.422  0.00  0.00    +0.150 HD
ATOM     35  O   PHE A   4       8.215   9.713   0.218  0.00  0.00    -0.273 OA
BRANCH  33  36
ATOM     36  CA  LEU A   5       8.866   7.168  -0.693  0.00  0.00    +0.149 C 
BRANCH  36  37
ATOM     37  C   LEU A   5       7.712   6.177  -0.656  0.00  0.00    +0.241 C 
ATOM     38  O   LEU A   5       7.793   5.187   0.053  0.00  0.00    -0.273 OA
ATOM     39  N   ASN A   6       6.651   6.443  -1.404  0.00  0.00    -0.297 N 
ATOM     40  H   ASN A   6       6.641   7.298  -1.996  0.00  0.00    +0.150 HD
BRANCH  39  41
ATOM     41  CA  ASN A   6       5.501   5.554  -1.407  0.00  0.00    +0.158 C 
BRANCH  41  42
ATOM     42  C   ASN A   6       5.142   5.093  -2.803  0.00  0.00    +0.241 C 
ATOM     43  N   ALA A   7       4.639   3.867  -2.871  0.00  0.00    -0.298 N 
ATOM     44  H   ALA A   7       4.544   3.318  -1.993  0.00  0.00    +0.150 HD
ATOM     45  O   ASN A   6       5.308   5.823  -3.783  0.00  0.00    -0.273 OA
BRANCH  43  46
ATOM     46  CA  ALA A   7       4.215   3.260  -4.121  0.00  0.00    +0.137 C 
ATOM     47  CB  ALA A   7       5.393   2.577  -4.803  0.00  0.00    +0.030 C 
BRANCH  46  48
ATOM     48  C   ALA A   7       3.149   2.237  -3.776  0.00  0.00    +0.227 C 
ATOM     49  O   ALA A   7       3.007   1.846  -2.617  0.00  0.00    -0.286 OA
ENDBRANCH  46  48
ENDBRANCH  43  46
ENDBRANCH  41  42
BRANCH  41  50
ATOM     50  CB  ASN A   6       4.280   6.228  -0.787  0.00  0.00    +0.114 C 
BRANCH  50  51
ATOM     51  CG  ASN A   6       4.375   6.349   0.719  0.00  0.00    +0.222 C 
ATOM     52  ND2 ASN A   6       4.091   5.250   1.423  0.00  0.00    -0.329 N 
ATOM     53 HD21 ASN A   6       4.138   5.271   2.462  0.00  0.00    +0.145 HD
ATOM     54 HD22 ASN A   6       3.823   4.373   0.932  0.00  0.00    +0.145 HD
ATOM     55  OD1 ASN A   6       4.696   7.408   1.245  0.00  0.00    -0.275 OA
ENDBRANCH  50  51
ENDBRANCH  41  50
ENDBRANCH  39  41
ENDBRANCH  36  37
BRANCH  36  56
ATOM     56  CB  LEU A   5      10.164   6.476  -1.122  0.00  0.00    +0.029 C 
BRANCH  56  57
ATOM     57  CG  LEU A   5      10.140   5.582  -2.358  0.00  0.00    +0.002 C 
ATOM     58  CD2 LEU A   5      11.545   5.134  -2.728  0.00  0.00    +0.000 C 
ATOM     59  CD1 LEU A   5       9.482   6.313  -3.512  0.00  0.00    +0.000 C 
ENDBRANCH  56  57
ENDBRANCH  36  56
ENDBRANCH  33  36
ENDBRANCH   1  32
BRANCH   1  60
ATOM     60  CB  PHE A   4       7.199   8.601   3.065  0.00  0.00    +0.055 C 
BRANCH  60  61
ATOM     61  CG  PHE A   4       7.285   7.965   4.414  0.00  0.00    -0.020 A 
ATOM     62  CD2 PHE A   4       7.293   8.739   5.567  0.00  0.00    -0.004 A 
ATOM     63  CE2 PHE A   4       7.399   8.149   6.819  0.00  0.00    -0.000 A 
ATOM     64  CZ  PHE A   4       7.499   6.762   6.930  0.00  0.00    -0.000 A 
ATOM     65  CE1 PHE A   4       7.491   5.976   5.781  0.00  0.00    -0.000 A 
ATOM     66  CD1 PHE A   4       7.385   6.581   4.532  0.00  0.00    -0.004 A 
ENDBRANCH  60  61
ENDBRANCH   1  60
TORSDOF 24
REMARK  Name = ../refined-set-2016/2qx0/2qx0_pocket.pdb
REMARK  146 active torsions:
REMARK  status: ('A' for Active; 'I' for Inactive)
REMARK    1  A    between atoms: _1  and  _3
REMARK    2  A    between atoms: _3  and  _4
REMARK    3  A    between atoms: _7  and  _9
REMARK    4  A    between atoms: _9  and  _10
REMARK    5  A    between atoms: _9  and  _12
REMARK    6  A    between atoms: _12  and  _13
REMARK    7  A    between atoms: _16  and  _18
REMARK    8  A    between atoms: _18  and  _19
REMARK    9  A    between atoms: _21  and  _23
REMARK   10  A    between atoms: _23  and  _24
REMARK   11  A    between atoms: _23  and  _26
REMARK   12  A    between atoms: _26  and  _27
REMARK   13  A    between atoms: _29  and  _31
REMARK   14  A    between atoms: _31  and  _32
REMARK   15  A    between atoms: _31  and  _34
REMARK   16  A    between atoms: _34  and  _35
REMARK   17  A    between atoms: _40  and  _42
REMARK   18  A    between atoms: _42  and  _43
REMARK   19  A    between atoms: _42  and  _45
REMARK   20  A    between atoms: _45  and  _46
REMARK   21  A    between atoms: _51  and  _52
REMARK   22  A    between atoms: _54  and  _56
REMARK   23  A    between atoms: _56  and  _57
REMARK   24  A    between atoms: _56  and  _59
REMARK   25  A    between atoms: _59  and  _60
REMARK   26  A    between atoms: _60  and  _61
REMARK   27  A    between atoms: _61  and  _62
REMARK   28  A    between atoms: _71  and  _73
REMARK   29  A    between atoms: _73  and  _74
REMARK   30  A    between atoms: _73  and  _76
REMARK   31  A    between atoms: _76  and  _77
REMARK   32  A    between atoms: _80  and  _82
REMARK   33  A    between atoms: _82  and  _83
REMARK   34  A    between atoms: _82  and  _85
REMARK   35  A    between atoms: _85  and  _86
REMARK   36  A    between atoms: _86  and  _87
REMARK   37  A    between atoms: _87  and  _88
REMARK   38  A    between atoms: _88  and  _89
REMARK   39  A    between atoms: _94  and  _95
REMARK   40  A    between atoms: _100  and  _102
REMARK   41  A    between atoms: _102  and  _103
REMARK   42  A    between atoms: _102  and  _105
REMARK   43  A    between atoms: _105  and  _106
REMARK   44  A    between atoms: _109  and  _111
REMARK   45  A    between atoms: _111  and  _112
REMARK   46  A    between atoms: _114  and  _116
REMARK   47  A    between atoms: _116  and  _117
REMARK   48  A    between atoms: _116  and  _119
REMARK   49  A    between atoms: _119  and  _120
REMARK   50  A    between atoms: _120  and  _121
REMARK   51  A    between atoms: _127  and  _128
REMARK   52  A    between atoms: _133  and  _135
REMARK   53  A    between atoms: _135  and  _136
REMARK   54  A    between atoms: _135  and  _138
REMARK   55  A    between atoms: _138  and  _139
REMARK   56  A    between atoms: _142  and  _144
REMARK   57  A    between atoms: _144  and  _145
REMARK   58  A    between atoms: _144  and  _147
REMARK   59  A    between atoms: _147  and  _148
REMARK   60  A    between atoms: _154  and  _156
REMARK   61  A    between atoms: _156  and  _157
REMARK   62  A    between atoms: _156  and  _159
REMARK   63  A    between atoms: _159  and  _160
REMARK   64  A    between atoms: _163  and  _165
REMARK   65  A    between atoms: _165  and  _166
REMARK   66  A    between atoms: _165  and  _168
REMARK   67  A    between atoms: _168  and  _169
REMARK   68  A    between atoms: _174  and  _176
REMARK   69  A    between atoms: _176  and  _177
REMARK   70  A    between atoms: _180  and  _182
REMARK   71  A    between atoms: _182  and  _183
REMARK   72  A    between atoms: _182  and  _185
REMARK   73  A    between atoms: _185  and  _186
REMARK   74  A    between atoms: _186  and  _187
REMARK   75  A    between atoms: _190  and  _192
REMARK   76  A    between atoms: _192  and  _193
REMARK   77  A    between atoms: _192  and  _195
REMARK   78  A    between atoms: _195  and  _196
REMARK   79  A    between atoms: _196  and  _197
REMARK   80  A    between atoms: _197  and  _198
REMARK   81  A    between atoms: _207  and  _209
REMARK   82  A    between atoms: _209  and  _210
REMARK   83  A    between atoms: _209  and  _212
REMARK   84  A    between atoms: _212  and  _213
REMARK   85  A    between atoms: _216  and  _218
REMARK   86  A    between atoms: _227  and  _230
REMARK   87  A    between atoms: _230  and  _231
REMARK   88  A    between atoms: _236  and  _237
REMARK   89  A    between atoms: _243  and  _245
REMARK   90  A    between atoms: _245  and  _246
REMARK   91  A    between atoms: _245  and  _248
REMARK   92  A    between atoms: _248  and  _249
REMARK   93  A    between atoms: _254  and  _256
REMARK   94  A    between atoms: _256  and  _257
REMARK   95  A    between atoms: _256  and  _259
REMARK   96  A    between atoms: _259  and  _260
REMARK   97  A    between atoms: _265  and  _266
REMARK   98  A    between atoms: _268  and  _270
REMARK   99  A    between atoms: _270  and  _271
REMARK  100  A    between atoms: _270  and  _273
REMARK  101  A    between atoms: _273  and  _274
REMARK  102  A    between atoms: _274  and  _275
REMARK  103  A    between atoms: _275  and  _276
REMARK  104  A    between atoms: _285  and  _287
REMARK  105  A    between atoms: _287  and  _288
REMARK  106  A    between atoms: _287  and  _290
REMARK  107  A    between atoms: _290  and  _291
REMARK  108  A    between atoms: _291  and  _292
REMARK  109  A    between atoms: _295  and  _297
REMARK  110  A    between atoms: _297  and  _298
REMARK  111  A    between atoms: _297  and  _300
REMARK  112  A    between atoms: _300  and  _301
REMARK  113  A    between atoms: _307  and  _309
REMARK  114  A    between atoms: _309  and  _310
REMARK  115  A    between atoms: _309  and  _312
REMARK  116  A    between atoms: _312  and  _313
REMARK  117  A    between atoms: _313  and  _314
REMARK  118  A    between atoms: _316  and  _318
REMARK  119  A    between atoms: _318  and  _319
REMARK  120  A    between atoms: _318  and  _321
REMARK  121  A    between atoms: _321  and  _322
REMARK  122  A    between atoms: _327  and  _329
REMARK  123  A    between atoms: _329  and  _330
REMARK  124  A    between atoms: _329  and  _332
REMARK  125  A    between atoms: _332  and  _333
REMARK  126  A    between atoms: _336  and  _338
REMARK  127  A    between atoms: _338  and  _339
REMARK  128  A    between atoms: _338  and  _341
REMARK  129  A    between atoms: _341  and  _342
REMARK  130  A    between atoms: _342  and  _343
REMARK  131  A    between atoms: _348  and  _350
REMARK  132  A    between atoms: _350  and  _351
REMARK  133  A    between atoms: _350  and  _353
REMARK  134  A    between atoms: _353  and  _354
REMARK  135  A    between atoms: _354  and  _355
REMARK  136  A    between atoms: _355  and  _356
REMARK  137  A    between atoms: _365  and  _367
REMARK  138  A    between atoms: _367  and  _368
REMARK  139  A    between atoms: _367  and  _370
REMARK  140  A    between atoms: _370  and  _371
REMARK  141  A    between atoms: _374  and  _376
REMARK  142  A    between atoms: _376  and  _377
REMARK  143  A    between atoms: _376  and  _379
REMARK  144  A    between atoms: _379  and  _380
REMARK  145  A    between atoms: _380  and  _381
REMARK  146  A    between atoms: _381  and  _382
REMARK                            x       y       z     vdW  Elec       q    Type
REMARK                         _______ _______ _______ _____ _____    ______ ____
ROOT
ATOM      1  CA  GLU A   1      10.032  -6.157   5.938  0.00  0.00    +0.134 C 
ENDROOT
BRANCH   1   2
ATOM      2  N   GLU A   1       9.683  -7.341   5.145  0.00  0.00    -0.239 NA
ATOM      3  H   GLU A   1       8.706  -7.698   5.159  0.00  0.00    +0.142 HD
ENDBRANCH   1   2
BRANCH   1   4
ATOM      4  C   GLU A   1      11.177  -6.534   6.870  0.00  0.00    +0.224 C 
ATOM      5  O   GLU A   1      12.191  -5.840   6.942  0.00  0.00    -0.287 OA
ENDBRANCH   1   4
BRANCH   1   6
ATOM      6  CB  GLU A   1       8.855  -5.692   6.810  0.00  0.00    +0.037 C 
BRANCH   6   7
ATOM      7  CG  GLU A   1       7.566  -5.351   6.081  0.00  0.00    +0.116 C 
BRANCH   7   8
ATOM      8  CD  GLU A   1       6.457  -4.935   7.045  0.00  0.00    +0.365 C 
ATOM      9  OE2 GLU A   1       6.178  -5.690   8.002  0.00  0.00    -0.246 OA
ATOM     10  OE1 GLU A   1       5.860  -3.861   6.851  0.00  0.00    -0.246 OA
ENDBRANCH   7   8
ENDBRANCH   6   7
ENDBRANCH   1   6
TORSDOF 5
REMARK  Name = ../refined-set-2016/2qx0/2qx0_pocket.pdb
REMARK  146 active torsions:
REMARK  status: ('A' for Active; 'I' for Inactive)
REMARK    1  A    between atoms: _1  and  _3
REMARK    2  A    between atoms: _3  and  _4
REMARK    3  A    between atoms: _7  and  _9
REMARK    4  A    between atoms: _9  and  _10
REMARK    5  A    between atoms: _9  and  _12
REMARK    6  A    between atoms: _12  and  _13
REMARK    7  A    between atoms: _16  and  _18
REMARK    8  A    between atoms: _18  and  _19
REMARK    9  A    between atoms: _21  and  _23
REMARK   10  A    between atoms: _23  and  _24
REMARK   11  A    between atoms: _23  and  _26
REMARK   12  A    between atoms: _26  and  _27
REMARK   13  A    between atoms: _29  and  _31
REMARK   14  A    between atoms: _31  and  _32
REMARK   15  A    between atoms: _31  and  _34
REMARK   16  A    between atoms: _34  and  _35
REMARK   17  A    between atoms: _40  and  _42
REMARK   18  A    between atoms: _42  and  _43
REMARK   19  A    between atoms: _42  and  _45
REMARK   20  A    between atoms: _45  and  _46
REMARK   21  A    between atoms: _51  and  _52
REMARK   22  A    between atoms: _54  and  _56
REMARK   23  A    between atoms: _56  and  _57
REMARK   24  A    between atoms: _56  and  _59
REMARK   25  A    between atoms: _59  and  _60
REMARK   26  A    between atoms: _60  and  _61
REMARK   27  A    between atoms: _61  and  _62
REMARK   28  A    between atoms: _71  and  _73
REMARK   29  A    between atoms: _73  and  _74
REMARK   30  A    between atoms: _73  and  _76
REMARK   31  A    between atoms: _76  and  _77
REMARK   32  A    between atoms: _80  and  _82
REMARK   33  A    between atoms: _82  and  _83
REMARK   34  A    between atoms: _82  and  _85
REMARK   35  A    between atoms: _85  and  _86
REMARK   36  A    between atoms: _86  and  _87
REMARK   37  A    between atoms: _87  and  _88
REMARK   38  A    between atoms: _88  and  _89
REMARK   39  A    between atoms: _94  and  _95
REMARK   40  A    between atoms: _100  and  _102
REMARK   41  A    between atoms: _102  and  _103
REMARK   42  A    between atoms: _102  and  _105
REMARK   43  A    between atoms: _105  and  _106
REMARK   44  A    between atoms: _109  and  _111
REMARK   45  A    between atoms: _111  and  _112
REMARK   46  A    between atoms: _114  and  _116
REMARK   47  A    between atoms: _116  and  _117
REMARK   48  A    between atoms: _116  and  _119
REMARK   49  A    between atoms: _119  and  _120
REMARK   50  A    between atoms: _120  and  _121
REMARK   51  A    between atoms: _127  and  _128
REMARK   52  A    between atoms: _133  and  _135
REMARK   53  A    between atoms: _135  and  _136
REMARK   54  A    between atoms: _135  and  _138
REMARK   55  A    between atoms: _138  and  _139
REMARK   56  A    between atoms: _142  and  _144
REMARK   57  A    between atoms: _144  and  _145
REMARK   58  A    between atoms: _144  and  _147
REMARK   59  A    between atoms: _147  and  _148
REMARK   60  A    between atoms: _154  and  _156
REMARK   61  A    between atoms: _156  and  _157
REMARK   62  A    between atoms: _156  and  _159
REMARK   63  A    between atoms: _159  and  _160
REMARK   64  A    between atoms: _163  and  _165
REMARK   65  A    between atoms: _165  and  _166
REMARK   66  A    between atoms: _165  and  _168
REMARK   67  A    between atoms: _168  and  _169
REMARK   68  A    between atoms: _174  and  _176
REMARK   69  A    between atoms: _176  and  _177
REMARK   70  A    between atoms: _180  and  _182
REMARK   71  A    between atoms: _182  and  _183
REMARK   72  A    between atoms: _182  and  _185
REMARK   73  A    between atoms: _185  and  _186
REMARK   74  A    between atoms: _186  and  _187
REMARK   75  A    between atoms: _190  and  _192
REMARK   76  A    between atoms: _192  and  _193
REMARK   77  A    between atoms: _192  and  _195
REMARK   78  A    between atoms: _195  and  _196
REMARK   79  A    between atoms: _196  and  _197
REMARK   80  A    between atoms: _197  and  _198
REMARK   81  A    between atoms: _207  and  _209
REMARK   82  A    between atoms: _209  and  _210
REMARK   83  A    between atoms: _209  and  _212
REMARK   84  A    between atoms: _212  and  _213
REMARK   85  A    between atoms: _216  and  _218
REMARK   86  A    between atoms: _227  and  _230
REMARK   87  A    between atoms: _230  and  _231
REMARK   88  A    between atoms: _236  and  _237
REMARK   89  A    between atoms: _243  and  _245
REMARK   90  A    between atoms: _245  and  _246
REMARK   91  A    between atoms: _245  and  _248
REMARK   92  A    between atoms: _248  and  _249
REMARK   93  A    between atoms: _254  and  _256
REMARK   94  A    between atoms: _256  and  _257
REMARK   95  A    between atoms: _256  and  _259
REMARK   96  A    between atoms: _259  and  _260
REMARK   97  A    between atoms: _265  and  _266
REMARK   98  A    between atoms: _268  and  _270
REMARK   99  A    between atoms: _270  and  _271
REMARK  100  A    between atoms: _270  and  _273
REMARK  101  A    between atoms: _273  and  _274
REMARK  102  A    between atoms: _274  and  _275
REMARK  103  A    between atoms: _275  and  _276
REMARK  104  A    between atoms: _285  and  _287
REMARK  105  A    between atoms: _287  and  _288
REMARK  106  A    between atoms: _287  and  _290
REMARK  107  A    between atoms: _290  and  _291
REMARK  108  A    between atoms: _291  and  _292
REMARK  109  A    between atoms: _295  and  _297
REMARK  110  A    between atoms: _297  and  _298
REMARK  111  A    between atoms: _297  and  _300
REMARK  112  A    between atoms: _300  and  _301
REMARK  113  A    between atoms: _307  and  _309
REMARK  114  A    between atoms: _309  and  _310
REMARK  115  A    between atoms: _309  and  _312
REMARK  116  A    between atoms: _312  and  _313
REMARK  117  A    between atoms: _313  and  _314
REMARK  118  A    between atoms: _316  and  _318
REMARK  119  A    between atoms: _318  and  _319
REMARK  120  A    between atoms: _318  and  _321
REMARK  121  A    between atoms: _321  and  _322
REMARK  122  A    between atoms: _327  and  _329
REMARK  123  A    between atoms: _329  and  _330
REMARK  124  A    between atoms: _329  and  _332
REMARK  125  A    between atoms: _332  and  _333
REMARK  126  A    between atoms: _336  and  _338
REMARK  127  A    between atoms: _338  and  _339
REMARK  128  A    between atoms: _338  and  _341
REMARK  129  A    between atoms: _341  and  _342
REMARK  130  A    between atoms: _342  and  _343
REMARK  131  A    between atoms: _348  and  _350
REMARK  132  A    between atoms: _350  and  _351
REMARK  133  A    between atoms: _350  and  _353
REMARK  134  A    between atoms: _353  and  _354
REMARK  135  A    between atoms: _354  and  _355
REMARK  136  A    between atoms: _355  and  _356
REMARK  137  A    between atoms: _365  and  _367
REMARK  138  A    between atoms: _367  and  _368
REMARK  139  A    between atoms: _367  and  _370
REMARK  140  A    between atoms: _370  and  _371
REMARK  141  A    between atoms: _374  and  _376
REMARK  142  A    between atoms: _376  and  _377
REMARK  143  A    between atoms: _376  and  _379
REMARK  144  A    between atoms: _379  and  _380
REMARK  145  A    between atoms: _380  and  _381
REMARK  146  A    between atoms: _381  and  _382
REMARK                            x       y       z     vdW  Elec       q    Type
REMARK                         _______ _______ _______ _____ _____    ______ ____
ROOT
ATOM      1  NE  ARG A   1       8.662  -0.123   9.049  0.00  0.00    -0.265 N 
ATOM      2  CZ  ARG A   1       7.370  -0.276   9.324  0.00  0.00    +0.342 C 
ATOM      3  NH2 ARG A   1       6.664   0.743   9.798  0.00  0.00    -0.292 N 
ATOM      4 HH21 ARG A   1       5.654   0.621  10.012  0.00  0.00    +0.255 HD
ATOM      5 HH22 ARG A   1       7.121   1.664   9.955  0.00  0.00    +0.255 HD
ATOM      6  NH1 ARG A   1       6.783  -1.448   9.132  0.00  0.00    -0.292 N 
ATOM      7 HH11 ARG A   1       5.772  -1.565   9.348  0.00  0.00    +0.255 HD
ATOM      8 HH12 ARG A   1       7.333  -2.251   8.765  0.00  0.00    +0.255 HD
ATOM      9  HE  ARG A   1       9.182  -0.945   8.681  0.00  0.00    +0.259 HD
ENDROOT
BRANCH   1  10
ATOM     10  CD  ARG A   1       9.398   1.128   9.231  0.00  0.00    +0.174 C 
BRANCH  10  11
ATOM     11  CG  ARG A   1       9.222   2.060   8.049  0.00  0.00    +0.045 C 
BRANCH  11  12
ATOM     12  CB  ARG A   1       9.939   3.386   8.261  0.00  0.00    +0.029 C 
BRANCH  12  13
ATOM     13  CA  ARG A   1      11.454   3.278   8.459  0.00  0.00    +0.133 C 
BRANCH  13  14
ATOM     14  N   ARG A   1      12.000   4.601   8.739  0.00  0.00    -0.239 NA
ATOM     15  H   ARG A   1      11.535   5.434   8.325  0.00  0.00    +0.142 HD
ENDBRANCH  13  14
BRANCH  13  16
ATOM     16  C   ARG A   1      12.104   2.683   7.215  0.00  0.00    +0.224 C 
ATOM     17  O   ARG A   1      12.077   3.291   6.148  0.00  0.00    -0.287 OA
ENDBRANCH  13  16
ENDBRANCH  12  13
ENDBRANCH  11  12
ENDBRANCH  10  11
ENDBRANCH   1  10
TORSDOF 6
REMARK  Name = ../refined-set-2016/2qx0/2qx0_pocket.pdb
REMARK  146 active torsions:
REMARK  status: ('A' for Active; 'I' for Inactive)
REMARK    1  A    between atoms: _1  and  _3
REMARK    2  A    between atoms: _3  and  _4
REMARK    3  A    between atoms: _7  and  _9
REMARK    4  A    between atoms: _9  and  _10
REMARK    5  A    between atoms: _9  and  _12
REMARK    6  A    between atoms: _12  and  _13
REMARK    7  A    between atoms: _16  and  _18
REMARK    8  A    between atoms: _18  and  _19
REMARK    9  A    between atoms: _21  and  _23
REMARK   10  A    between atoms: _23  and  _24
REMARK   11  A    between atoms: _23  and  _26
REMARK   12  A    between atoms: _26  and  _27
REMARK   13  A    between atoms: _29  and  _31
REMARK   14  A    between atoms: _31  and  _32
REMARK   15  A    between atoms: _31  and  _34
REMARK   16  A    between atoms: _34  and  _35
REMARK   17  A    between atoms: _40  and  _42
REMARK   18  A    between atoms: _42  and  _43
REMARK   19  A    between atoms: _42  and  _45
REMARK   20  A    between atoms: _45  and  _46
REMARK   21  A    between atoms: _51  and  _52
REMARK   22  A    between atoms: _54  and  _56
REMARK   23  A    between atoms: _56  and  _57
REMARK   24  A    between atoms: _56  and  _59
REMARK   25  A    between atoms: _59  and  _60
REMARK   26  A    between atoms: _60  and  _61
REMARK   27  A    between atoms: _61  and  _62
REMARK   28  A    between atoms: _71  and  _73
REMARK   29  A    between atoms: _73  and  _74
REMARK   30  A    between atoms: _73  and  _76
REMARK   31  A    between atoms: _76  and  _77
REMARK   32  A    between atoms: _80  and  _82
REMARK   33  A    between atoms: _82  and  _83
REMARK   34  A    between atoms: _82  and  _85
REMARK   35  A    between atoms: _85  and  _86
REMARK   36  A    between atoms: _86  and  _87
REMARK   37  A    between atoms: _87  and  _88
REMARK   38  A    between atoms: _88  and  _89
REMARK   39  A    between atoms: _94  and  _95
REMARK   40  A    between atoms: _100  and  _102
REMARK   41  A    between atoms: _102  and  _103
REMARK   42  A    between atoms: _102  and  _105
REMARK   43  A    between atoms: _105  and  _106
REMARK   44  A    between atoms: _109  and  _111
REMARK   45  A    between atoms: _111  and  _112
REMARK   46  A    between atoms: _114  and  _116
REMARK   47  A    between atoms: _116  and  _117
REMARK   48  A    between atoms: _116  and  _119
REMARK   49  A    between atoms: _119  and  _120
REMARK   50  A    between atoms: _120  and  _121
REMARK   51  A    between atoms: _127  and  _128
REMARK   52  A    between atoms: _133  and  _135
REMARK   53  A    between atoms: _135  and  _136
REMARK   54  A    between atoms: _135  and  _138
REMARK   55  A    between atoms: _138  and  _139
REMARK   56  A    between atoms: _142  and  _144
REMARK   57  A    between atoms: _144  and  _145
REMARK   58  A    between atoms: _144  and  _147
REMARK   59  A    between atoms: _147  and  _148
REMARK   60  A    between atoms: _154  and  _156
REMARK   61  A    between atoms: _156  and  _157
REMARK   62  A    between atoms: _156  and  _159
REMARK   63  A    between atoms: _159  and  _160
REMARK   64  A    between atoms: _163  and  _165
REMARK   65  A    between atoms: _165  and  _166
REMARK   66  A    between atoms: _165  and  _168
REMARK   67  A    between atoms: _168  and  _169
REMARK   68  A    between atoms: _174  and  _176
REMARK   69  A    between atoms: _176  and  _177
REMARK   70  A    between atoms: _180  and  _182
REMARK   71  A    between atoms: _182  and  _183
REMARK   72  A    between atoms: _182  and  _185
REMARK   73  A    between atoms: _185  and  _186
REMARK   74  A    between atoms: _186  and  _187
REMARK   75  A    between atoms: _190  and  _192
REMARK   76  A    between atoms: _192  and  _193
REMARK   77  A    between atoms: _192  and  _195
REMARK   78  A    between atoms: _195  and  _196
REMARK   79  A    between atoms: _196  and  _197
REMARK   80  A    between atoms: _197  and  _198
REMARK   81  A    between atoms: _207  and  _209
REMARK   82  A    between atoms: _209  and  _210
REMARK   83  A    between atoms: _209  and  _212
REMARK   84  A    between atoms: _212  and  _213
REMARK   85  A    between atoms: _216  and  _218
REMARK   86  A    between atoms: _227  and  _230
REMARK   87  A    between atoms: _230  and  _231
REMARK   88  A    between atoms: _236  and  _237
REMARK   89  A    between atoms: _243  and  _245
REMARK   90  A    between atoms: _245  and  _246
REMARK   91  A    between atoms: _245  and  _248
REMARK   92  A    between atoms: _248  and  _249
REMARK   93  A    between atoms: _254  and  _256
REMARK   94  A    between atoms: _256  and  _257
REMARK   95  A    between atoms: _256  and  _259
REMARK   96  A    between atoms: _259  and  _260
REMARK   97  A    between atoms: _265  and  _266
REMARK   98  A    between atoms: _268  and  _270
REMARK   99  A    between atoms: _270  and  _271
REMARK  100  A    between atoms: _270  and  _273
REMARK  101  A    between atoms: _273  and  _274
REMARK  102  A    between atoms: _274  and  _275
REMARK  103  A    between atoms: _275  and  _276
REMARK  104  A    between atoms: _285  and  _287
REMARK  105  A    between atoms: _287  and  _288
REMARK  106  A    between atoms: _287  and  _290
REMARK  107  A    between atoms: _290  and  _291
REMARK  108  A    between atoms: _291  and  _292
REMARK  109  A    between atoms: _295  and  _297
REMARK  110  A    between atoms: _297  and  _298
REMARK  111  A    between atoms: _297  and  _300
REMARK  112  A    between atoms: _300  and  _301
REMARK  113  A    between atoms: _307  and  _309
REMARK  114  A    between atoms: _309  and  _310
REMARK  115  A    between atoms: _309  and  _312
REMARK  116  A    between atoms: _312  and  _313
REMARK  117  A    between atoms: _313  and  _314
REMARK  118  A    between atoms: _316  and  _318
REMARK  119  A    between atoms: _318  and  _319
REMARK  120  A    between atoms: _318  and  _321
REMARK  121  A    between atoms: _321  and  _322
REMARK  122  A    between atoms: _327  and  _329
REMARK  123  A    between atoms: _329  and  _330
REMARK  124  A    between atoms: _329  and  _332
REMARK  125  A    between atoms: _332  and  _333
REMARK  126  A    between atoms: _336  and  _338
REMARK  127  A    between atoms: _338  and  _339
REMARK  128  A    between atoms: _338  and  _341
REMARK  129  A    between atoms: _341  and  _342
REMARK  130  A    between atoms: _342  and  _343
REMARK  131  A    between atoms: _348  and  _350
REMARK  132  A    between atoms: _350  and  _351
REMARK  133  A    between atoms: _350  and  _353
REMARK  134  A    between atoms: _353  and  _354
REMARK  135  A    between atoms: _354  and  _355
REMARK  136  A    between atoms: _355  and  _356
REMARK  137  A    between atoms: _365  and  _367
REMARK  138  A    between atoms: _367  and  _368
REMARK  139  A    between atoms: _367  and  _370
REMARK  140  A    between atoms: _370  and  _371
REMARK  141  A    between atoms: _374  and  _376
REMARK  142  A    between atoms: _376  and  _377
REMARK  143  A    between atoms: _376  and  _379
REMARK  144  A    between atoms: _379  and  _380
REMARK  145  A    between atoms: _380  and  _381
REMARK  146  A    between atoms: _381  and  _382
REMARK                            x       y       z     vdW  Elec       q    Type
REMARK                         _______ _______ _______ _____ _____    ______ ____
ROOT
ATOM      1  C   UNK A   2       6.642  -0.871   5.541  0.00  0.00    +0.000 C 
ATOM      2  C   UNK A   2       6.081   0.382   6.230  0.00  0.00    +0.000 C 
ATOM      3  C   UNK A   2       4.687   0.173   6.795  0.00  0.00    +0.000 C 
ATOM      4  O   UNK A   2       4.485  -0.796   7.561  0.00  0.00    +0.000 OA
ATOM      5 MG   UNK A   2       2.803  -1.624   8.226  0.00  0.00    +0.000 Mg
ATOM      6  O   UNK A   2       1.677  -1.212   6.475  0.00  0.00    +0.000 OA
ATOM      7  C   UNK A   2       0.857  -0.492   5.866  0.00  0.00    +0.000 C 
ATOM      8  O   UNK A   2       0.631   0.701   6.173  0.00  0.00    +0.000 OA
ATOM      9 MG   UNK A   2       1.956   1.715   7.384  0.00  0.00    +0.000 Mg
ATOM     10  C   UNK A   2       0.085  -1.098   4.714  0.00  0.00    +0.000 C 
ATOM     11  C   UNK A   2       0.585  -2.492   4.330  0.00  0.00    +0.000 C 
ATOM     12  N   UNK A   2       1.932  -2.417   3.789  0.00  0.00    +0.000 N 
ATOM     13  C   LEU A   3       2.855  -3.275   4.189  0.00  0.00    +0.000 C 
ATOM     14  O   LEU A   3       2.622  -4.160   5.019  0.00  0.00    +0.000 OA
ATOM     15  CA  LEU A   3       4.244  -3.107   3.577  0.00  0.00    +0.000 C 
ATOM     16  N   LEU A   3       5.150  -2.546   4.579  0.00  0.00    +0.000 N 
ATOM     17  H   LEU A   3       5.367  -3.099   5.432  0.00  0.00    +0.000 HD
ATOM     18  H   UNK A   2       2.170  -1.688   3.087  0.00  0.00    +0.000 HD
ATOM     19  O   UNK A   2       3.798   0.993   6.473  0.00  0.00    +0.000 OA
ATOM     20  C   UNK A   2       5.704  -1.344   4.426  0.00  0.00    +0.000 C 
ATOM     21  O   UNK A   2       5.516  -0.645   3.436  0.00  0.00    +0.000 OA
ENDROOT
BRANCH   1  24
ATOM     22  C   LEU A   1       9.045  -1.167   5.321  0.00  0.00    +0.000 C 
ATOM     23  O   LEU A   1       9.071  -2.011   6.217  0.00  0.00    +0.000 OA
ATOM     24  N   UNK A   2       7.930  -0.562   4.930  0.00  0.00    +0.000 N 
ATOM     25  H   UNK A   2       7.976   0.148   4.171  0.00  0.00    +0.000 HD
BRANCH  22  26
ATOM     26  CA  LEU A   1      10.318  -0.767   4.592  0.00  0.00    +0.000 C 
BRANCH  26  27
ATOM     27  N   LEU A   1      11.334  -0.316   5.537  0.00  0.00    +0.000 NA
ATOM     28  H   LEU A   1      11.256  -0.593   6.536  0.00  0.00    +0.000 HD
ENDBRANCH  26  27
BRANCH  26  29
ATOM     29  CB  LEU A   1      10.826  -1.974   3.800  0.00  0.00    +0.000 C 
BRANCH  29  30
ATOM     30  CG  LEU A   1       9.867  -2.520   2.735  0.00  0.00    +0.000 C 
ATOM     31  CD2 LEU A   1      10.323  -3.901   2.301  0.00  0.00    +0.000 C 
ATOM     32  CD1 LEU A   1       9.828  -1.566   1.533  0.00  0.00    +0.000 C 
ENDBRANCH  29  30
ENDBRANCH  26  29
ENDBRANCH  22  26
ENDBRANCH   1  24
BRANCH  11  33
ATOM     33  C   UNK A   2      -0.361  -3.116   3.320  0.00  0.00    +0.000 C 
ATOM     34  O   ACE A   4      -0.380  -2.712   2.157  0.00  0.00    +0.000 OA
ENDBRANCH  11  33
BRANCH  15  35
ATOM     35  CB  LEU A   3       4.765  -4.461   3.089  0.00  0.00    +0.000 C 
BRANCH  35  36
ATOM     36  CG  LEU A   3       6.163  -4.482   2.448  0.00  0.00    +0.000 C 
ATOM     37  CD2 LEU A   3       6.523  -5.916   2.112  0.00  0.00    +0.000 C 
ATOM     38  CD1 LEU A   3       6.183  -3.629   1.179  0.00  0.00    +0.000 C 
ENDBRANCH  35  36
ENDBRANCH  15  35
TORSDOF 8
REMARK  Name = ../refined-set-2016/2qx0/2qx0_pocket.pdb
REMARK  146 active torsions:
REMARK  status: ('A' for Active; 'I' for Inactive)
REMARK    1  A    between atoms: _1  and  _3
REMARK    2  A    between atoms: _3  and  _4
REMARK    3  A    between atoms: _7  and  _9
REMARK    4  A    between atoms: _9  and  _10
REMARK    5  A    between atoms: _9  and  _12
REMARK    6  A    between atoms: _12  and  _13
REMARK    7  A    between atoms: _16  and  _18
REMARK    8  A    between atoms: _18  and  _19
REMARK    9  A    between atoms: _21  and  _23
REMARK   10  A    between atoms: _23  and  _24
REMARK   11  A    between atoms: _23  and  _26
REMARK   12  A    between atoms: _26  and  _27
REMARK   13  A    between atoms: _29  and  _31
REMARK   14  A    between atoms: _31  and  _32
REMARK   15  A    between atoms: _31  and  _34
REMARK   16  A    between atoms: _34  and  _35
REMARK   17  A    between atoms: _40  and  _42
REMARK   18  A    between atoms: _42  and  _43
REMARK   19  A    between atoms: _42  and  _45
REMARK   20  A    between atoms: _45  and  _46
REMARK   21  A    between atoms: _51  and  _52
REMARK   22  A    between atoms: _54  and  _56
REMARK   23  A    between atoms: _56  and  _57
REMARK   24  A    between atoms: _56  and  _59
REMARK   25  A    between atoms: _59  and  _60
REMARK   26  A    between atoms: _60  and  _61
REMARK   27  A    between atoms: _61  and  _62
REMARK   28  A    between atoms: _71  and  _73
REMARK   29  A    between atoms: _73  and  _74
REMARK   30  A    between atoms: _73  and  _76
REMARK   31  A    between atoms: _76  and  _77
REMARK   32  A    between atoms: _80  and  _82
REMARK   33  A    between atoms: _82  and  _83
REMARK   34  A    between atoms: _82  and  _85
REMARK   35  A    between atoms: _85  and  _86
REMARK   36  A    between atoms: _86  and  _87
REMARK   37  A    between atoms: _87  and  _88
REMARK   38  A    between atoms: _88  and  _89
REMARK   39  A    between atoms: _94  and  _95
REMARK   40  A    between atoms: _100  and  _102
REMARK   41  A    between atoms: _102  and  _103
REMARK   42  A    between atoms: _102  and  _105
REMARK   43  A    between atoms: _105  and  _106
REMARK   44  A    between atoms: _109  and  _111
REMARK   45  A    between atoms: _111  and  _112
REMARK   46  A    between atoms: _114  and  _116
REMARK   47  A    between atoms: _116  and  _117
REMARK   48  A    between atoms: _116  and  _119
REMARK   49  A    between atoms: _119  and  _120
REMARK   50  A    between atoms: _120  and  _121
REMARK   51  A    between atoms: _127  and  _128
REMARK   52  A    between atoms: _133  and  _135
REMARK   53  A    between atoms: _135  and  _136
REMARK   54  A    between atoms: _135  and  _138
REMARK   55  A    between atoms: _138  and  _139
REMARK   56  A    between atoms: _142  and  _144
REMARK   57  A    between atoms: _144  and  _145
REMARK   58  A    between atoms: _144  and  _147
REMARK   59  A    between atoms: _147  and  _148
REMARK   60  A    between atoms: _154  and  _156
REMARK   61  A    between atoms: _156  and  _157
REMARK   62  A    between atoms: _156  and  _159
REMARK   63  A    between atoms: _159  and  _160
REMARK   64  A    between atoms: _163  and  _165
REMARK   65  A    between atoms: _165  and  _166
REMARK   66  A    between atoms: _165  and  _168
REMARK   67  A    between atoms: _168  and  _169
REMARK   68  A    between atoms: _174  and  _176
REMARK   69  A    between atoms: _176  and  _177
REMARK   70  A    between atoms: _180  and  _182
REMARK   71  A    between atoms: _182  and  _183
REMARK   72  A    between atoms: _182  and  _185
REMARK   73  A    between atoms: _185  and  _186
REMARK   74  A    between atoms: _186  and  _187
REMARK   75  A    between atoms: _190  and  _192
REMARK   76  A    between atoms: _192  and  _193
REMARK   77  A    between atoms: _192  and  _195
REMARK   78  A    between atoms: _195  and  _196
REMARK   79  A    between atoms: _196  and  _197
REMARK   80  A    between atoms: _197  and  _198
REMARK   81  A    between atoms: _207  and  _209
REMARK   82  A    between atoms: _209  and  _210
REMARK   83  A    between atoms: _209  and  _212
REMARK   84  A    between atoms: _212  and  _213
REMARK   85  A    between atoms: _216  and  _218
REMARK   86  A    between atoms: _227  and  _230
REMARK   87  A    between atoms: _230  and  _231
REMARK   88  A    between atoms: _236  and  _237
REMARK   89  A    between atoms: _243  and  _245
REMARK   90  A    between atoms: _245  and  _246
REMARK   91  A    between atoms: _245  and  _248
REMARK   92  A    between atoms: _248  and  _249
REMARK   93  A    between atoms: _254  and  _256
REMARK   94  A    between atoms: _256  and  _257
REMARK   95  A    between atoms: _256  and  _259
REMARK   96  A    between atoms: _259  and  _260
REMARK   97  A    between atoms: _265  and  _266
REMARK   98  A    between atoms: _268  and  _270
REMARK   99  A    between atoms: _270  and  _271
REMARK  100  A    between atoms: _270  and  _273
REMARK  101  A    between atoms: _273  and  _274
REMARK  102  A    between atoms: _274  and  _275
REMARK  103  A    between atoms: _275  and  _276
REMARK  104  A    between atoms: _285  and  _287
REMARK  105  A    between atoms: _287  and  _288
REMARK  106  A    between atoms: _287  and  _290
REMARK  107  A    between atoms: _290  and  _291
REMARK  108  A    between atoms: _291  and  _292
REMARK  109  A    between atoms: _295  and  _297
REMARK  110  A    between atoms: _297  and  _298
REMARK  111  A    between atoms: _297  and  _300
REMARK  112  A    between atoms: _300  and  _301
REMARK  113  A    between atoms: _307  and  _309
REMARK  114  A    between atoms: _309  and  _310
REMARK  115  A    between atoms: _309  and  _312
REMARK  116  A    between atoms: _312  and  _313
REMARK  117  A    between atoms: _313  and  _314
REMARK  118  A    between atoms: _316  and  _318
REMARK  119  A    between atoms: _318  and  _319
REMARK  120  A    between atoms: _318  and  _321
REMARK  121  A    between atoms: _321  and  _322
REMARK  122  A    between atoms: _327  and  _329
REMARK  123  A    between atoms: _329  and  _330
REMARK  124  A    between atoms: _329  and  _332
REMARK  125  A    between atoms: _332  and  _333
REMARK  126  A    between atoms: _336  and  _338
REMARK  127  A    between atoms: _338  and  _339
REMARK  128  A    between atoms: _338  and  _341
REMARK  129  A    between atoms: _341  and  _342
REMARK  130  A    between atoms: _342  and  _343
REMARK  131  A    between atoms: _348  and  _350
REMARK  132  A    between atoms: _350  and  _351
REMARK  133  A    between atoms: _350  and  _353
REMARK  134  A    between atoms: _353  and  _354
REMARK  135  A    between atoms: _354  and  _355
REMARK  136  A    between atoms: _355  and  _356
REMARK  137  A    between atoms: _365  and  _367
REMARK  138  A    between atoms: _367  and  _368
REMARK  139  A    between atoms: _367  and  _370
REMARK  140  A    between atoms: _370  and  _371
REMARK  141  A    between atoms: _374  and  _376
REMARK  142  A    between atoms: _376  and  _377
REMARK  143  A    between atoms: _376  and  _379
REMARK  144  A    between atoms: _379  and  _380
REMARK  145  A    between atoms: _380  and  _381
REMARK  146  A    between atoms: _381  and  _382
REMARK                            x       y       z     vdW  Elec       q    Type
REMARK                         _______ _______ _______ _____ _____    ______ ____
ROOT
ATOM      1  C   HIS A   1      -7.013   0.435   6.462  0.00  0.00    +0.239 C 
ATOM      2  N   TYR A   2      -6.987   0.571   7.784  0.00  0.00    -0.298 N 
ATOM      3  H   TYR A   2      -6.392  -0.068   8.349  0.00  0.00    +0.150 HD
ATOM      4  O   HIS A   1      -7.672   1.170   5.719  0.00  0.00    -0.274 OA
ENDROOT
BRANCH   1   5
ATOM      5  CA  HIS A   1      -6.188  -0.716   5.884  0.00  0.00    +0.151 C 
BRANCH   5   6
ATOM      6  N   HIS A   1      -7.043  -1.374   4.903  0.00  0.00    -0.238 NA
ATOM      7  H   HIS A   1      -6.691  -1.524   3.936  0.00  0.00    +0.142 HD
ENDBRANCH   5   6
BRANCH   5   8
ATOM      8  CB  HIS A   1      -4.913  -0.185   5.220  0.00  0.00    +0.074 C 
BRANCH   8   9
ATOM      9  CG  HIS A   1      -3.949   0.449   6.177  0.00  0.00    +0.082 A 
ATOM     10  CD2 HIS A   1      -2.836  -0.040   6.777  0.00  0.00    +0.115 A 
ATOM     11  NE2 HIS A   1      -2.332   0.960   7.575  0.00  0.00    -0.221 NA
ATOM     12  CE1 HIS A   1      -3.110   2.023   7.470  0.00  0.00    +0.199 A 
ATOM     13  ND1 HIS A   1      -4.093   1.742   6.634  0.00  0.00    -0.227 NA
ENDBRANCH   8   9
ENDBRANCH   5   8
ENDBRANCH   1   5
BRANCH   2  14
ATOM     14  CA  TYR A   2      -7.774   1.597   8.462  0.00  0.00    +0.141 C 
BRANCH  14  15
ATOM     15  C   TYR A   2      -7.565   3.014   7.944  0.00  0.00    +0.227 C 
ATOM     16  O   TYR A   2      -8.479   3.825   7.985  0.00  0.00    -0.286 OA
ENDBRANCH  14  15
BRANCH  14  17
ATOM     17  CB  TYR A   2      -7.497   1.565   9.972  0.00  0.00    +0.054 C 
BRANCH  17  18
ATOM     18  CG  TYR A   2      -6.245   2.310  10.376  0.00  0.00    -0.020 A 
ATOM     19  CD2 TYR A   2      -5.041   1.633  10.569  0.00  0.00    -0.001 A 
ATOM     20  CE2 TYR A   2      -3.875   2.316  10.908  0.00  0.00    +0.036 A 
ATOM     21  CZ  TYR A   2      -3.912   3.692  11.052  0.00  0.00    +0.134 A 
ATOM     22  CE1 TYR A   2      -5.100   4.388  10.867  0.00  0.00    +0.036 A 
ATOM     23  CD1 TYR A   2      -6.255   3.699  10.533  0.00  0.00    -0.001 A 
BRANCH  21  24
ATOM     24  OH  TYR A   2      -2.753   4.370  11.347  0.00  0.00    -0.506 OA
ATOM     25  HH  TYR A   2      -2.947   5.338  11.416  0.00  0.00    +0.292 HD
ENDBRANCH  21  24
ENDBRANCH  17  18
ENDBRANCH  14  17
ENDBRANCH   2  14
TORSDOF 9
REMARK  Name = ../refined-set-2016/2qx0/2qx0_pocket.pdb
REMARK  146 active torsions:
REMARK  status: ('A' for Active; 'I' for Inactive)
REMARK    1  A    between atoms: _1  and  _3
REMARK    2  A    between atoms: _3  and  _4
REMARK    3  A    between atoms: _7  and  _9
REMARK    4  A    between atoms: _9  and  _10
REMARK    5  A    between atoms: _9  and  _12
REMARK    6  A    between atoms: _12  and  _13
REMARK    7  A    between atoms: _16  and  _18
REMARK    8  A    between atoms: _18  and  _19
REMARK    9  A    between atoms: _21  and  _23
REMARK   10  A    between atoms: _23  and  _24
REMARK   11  A    between atoms: _23  and  _26
REMARK   12  A    between atoms: _26  and  _27
REMARK   13  A    between atoms: _29  and  _31
REMARK   14  A    between atoms: _31  and  _32
REMARK   15  A    between atoms: _31  and  _34
REMARK   16  A    between atoms: _34  and  _35
REMARK   17  A    between atoms: _40  and  _42
REMARK   18  A    between atoms: _42  and  _43
REMARK   19  A    between atoms: _42  and  _45
REMARK   20  A    between atoms: _45  and  _46
REMARK   21  A    between atoms: _51  and  _52
REMARK   22  A    between atoms: _54  and  _56
REMARK   23  A    between atoms: _56  and  _57
REMARK   24  A    between atoms: _56  and  _59
REMARK   25  A    between atoms: _59  and  _60
REMARK   26  A    between atoms: _60  and  _61
REMARK   27  A    between atoms: _61  and  _62
REMARK   28  A    between atoms: _71  and  _73
REMARK   29  A    between atoms: _73  and  _74
REMARK   30  A    between atoms: _73  and  _76
REMARK   31  A    between atoms: _76  and  _77
REMARK   32  A    between atoms: _80  and  _82
REMARK   33  A    between atoms: _82  and  _83
REMARK   34  A    between atoms: _82  and  _85
REMARK   35  A    between atoms: _85  and  _86
REMARK   36  A    between atoms: _86  and  _87
REMARK   37  A    between atoms: _87  and  _88
REMARK   38  A    between atoms: _88  and  _89
REMARK   39  A    between atoms: _94  and  _95
REMARK   40  A    between atoms: _100  and  _102
REMARK   41  A    between atoms: _102  and  _103
REMARK   42  A    between atoms: _102  and  _105
REMARK   43  A    between atoms: _105  and  _106
REMARK   44  A    between atoms: _109  and  _111
REMARK   45  A    between atoms: _111  and  _112
REMARK   46  A    between atoms: _114  and  _116
REMARK   47  A    between atoms: _116  and  _117
REMARK   48  A    between atoms: _116  and  _119
REMARK   49  A    between atoms: _119  and  _120
REMARK   50  A    between atoms: _120  and  _121
REMARK   51  A    between atoms: _127  and  _128
REMARK   52  A    between atoms: _133  and  _135
REMARK   53  A    between atoms: _135  and  _136
REMARK   54  A    between atoms: _135  and  _138
REMARK   55  A    between atoms: _138  and  _139
REMARK   56  A    between atoms: _142  and  _144
REMARK   57  A    between atoms: _144  and  _145
REMARK   58  A    between atoms: _144  and  _147
REMARK   59  A    between atoms: _147  and  _148
REMARK   60  A    between atoms: _154  and  _156
REMARK   61  A    between atoms: _156  and  _157
REMARK   62  A    between atoms: _156  and  _159
REMARK   63  A    between atoms: _159  and  _160
REMARK   64  A    between atoms: _163  and  _165
REMARK   65  A    between atoms: _165  and  _166
REMARK   66  A    between atoms: _165  and  _168
REMARK   67  A    between atoms: _168  and  _169
REMARK   68  A    between atoms: _174  and  _176
REMARK   69  A    between atoms: _176  and  _177
REMARK   70  A    between atoms: _180  and  _182
REMARK   71  A    between atoms: _182  and  _183
REMARK   72  A    between atoms: _182  and  _185
REMARK   73  A    between atoms: _185  and  _186
REMARK   74  A    between atoms: _186  and  _187
REMARK   75  A    between atoms: _190  and  _192
REMARK   76  A    between atoms: _192  and  _193
REMARK   77  A    between atoms: _192  and  _195
REMARK   78  A    between atoms: _195  and  _196
REMARK   79  A    between atoms: _196  and  _197
REMARK   80  A    between atoms: _197  and  _198
REMARK   81  A    between atoms: _207  and  _209
REMARK   82  A    between atoms: _209  and  _210
REMARK   83  A    between atoms: _209  and  _212
REMARK   84  A    between atoms: _212  and  _213
REMARK   85  A    between atoms: _216  and  _218
REMARK   86  A    between atoms: _227  and  _230
REMARK   87  A    between atoms: _230  and  _231
REMARK   88  A    between atoms: _236  and  _237
REMARK   89  A    between atoms: _243  and  _245
REMARK   90  A    between atoms: _245  and  _246
REMARK   91  A    between atoms: _245  and  _248
REMARK   92  A    between atoms: _248  and  _249
REMARK   93  A    between atoms: _254  and  _256
REMARK   94  A    between atoms: _256  and  _257
REMARK   95  A    between atoms: _256  and  _259
REMARK   96  A    between atoms: _259  and  _260
REMARK   97  A    between atoms: _265  and  _266
REMARK   98  A    between atoms: _268  and  _270
REMARK   99  A    between atoms: _270  and  _271
REMARK  100  A    between atoms: _270  and  _273
REMARK  101  A    between atoms: _273  and  _274
REMARK  102  A    between atoms: _274  and  _275
REMARK  103  A    between atoms: _275  and  _276
REMARK  104  A    between atoms: _285  and  _287
REMARK  105  A    between atoms: _287  and  _288
REMARK  106  A    between atoms: _287  and  _290
REMARK  107  A    between atoms: _290  and  _291
REMARK  108  A    between atoms: _291  and  _292
REMARK  109  A    between atoms: _295  and  _297
REMARK  110  A    between atoms: _297  and  _298
REMARK  111  A    between atoms: _297  and  _300
REMARK  112  A    between atoms: _300  and  _301
REMARK  113  A    between atoms: _307  and  _309
REMARK  114  A    between atoms: _309  and  _310
REMARK  115  A    between atoms: _309  and  _312
REMARK  116  A    between atoms: _312  and  _313
REMARK  117  A    between atoms: _313  and  _314
REMARK  118  A    between atoms: _316  and  _318
REMARK  119  A    between atoms: _318  and  _319
REMARK  120  A    between atoms: _318  and  _321
REMARK  121  A    between atoms: _321  and  _322
REMARK  122  A    between atoms: _327  and  _329
REMARK  123  A    between atoms: _329  and  _330
REMARK  124  A    between atoms: _329  and  _332
REMARK  125  A    between atoms: _332  and  _333
REMARK  126  A    between atoms: _336  and  _338
REMARK  127  A    between atoms: _338  and  _339
REMARK  128  A    between atoms: _338  and  _341
REMARK  129  A    between atoms: _341  and  _342
REMARK  130  A    between atoms: _342  and  _343
REMARK  131  A    between atoms: _348  and  _350
REMARK  132  A    between atoms: _350  and  _351
REMARK  133  A    between atoms: _350  and  _353
REMARK  134  A    between atoms: _353  and  _354
REMARK  135  A    between atoms: _354  and  _355
REMARK  136  A    between atoms: _355  and  _356
REMARK  137  A    between atoms: _365  and  _367
REMARK  138  A    between atoms: _367  and  _368
REMARK  139  A    between atoms: _367  and  _370
REMARK  140  A    between atoms: _370  and  _371
REMARK  141  A    between atoms: _374  and  _376
REMARK  142  A    between atoms: _376  and  _377
REMARK  143  A    between atoms: _376  and  _379
REMARK  144  A    between atoms: _379  and  _380
REMARK  145  A    between atoms: _380  and  _381
REMARK  146  A    between atoms: _381  and  _382
REMARK                            x       y       z     vdW  Elec       q    Type
REMARK                         _______ _______ _______ _____ _____    ______ ____
ROOT
ATOM      1  CA  GLU A   2      -3.068  10.537  -0.073  0.00  0.00    +0.149 C 
ENDROOT
BRANCH   1   3
ATOM      2  C   ARG A   1      -3.777   9.017   1.659  0.00  0.00    +0.238 C 
ATOM      3  N   GLU A   2      -3.353  10.225   1.314  0.00  0.00    -0.297 N 
ATOM      4  H   GLU A   2      -3.224  10.954   2.044  0.00  0.00    +0.150 HD
ATOM      5  O   ARG A   1      -3.929   8.109   0.846  0.00  0.00    -0.274 OA
BRANCH   2   6
ATOM      6  CA  ARG A   1      -4.042   8.805   3.143  0.00  0.00    +0.145 C 
BRANCH   6   7
ATOM      7  N   ARG A   1      -5.444   8.651   3.495  0.00  0.00    -0.238 NA
ATOM      8  H   ARG A   1      -5.930   7.757   3.279  0.00  0.00    +0.142 HD
ENDBRANCH   6   7
BRANCH   6   9
ATOM      9  CB  ARG A   1      -3.266   7.585   3.645  0.00  0.00    +0.030 C 
BRANCH   9  10
ATOM     10  CG  ARG A   1      -3.267   7.469   5.157  0.00  0.00    +0.045 C 
BRANCH  10  11
ATOM     11  CD  ARG A   1      -2.558   6.218   5.617  0.00  0.00    +0.174 C 
BRANCH  11  12
ATOM     12  NE  ARG A   1      -2.261   6.277   7.047  0.00  0.00    -0.265 N 
ATOM     13  CZ  ARG A   1      -1.479   5.416   7.685  0.00  0.00    +0.342 C 
ATOM     14  NH2 ARG A   1      -1.265   5.562   8.987  0.00  0.00    -0.292 N 
ATOM     15 HH21 ARG A   1      -1.710   6.349   9.502  0.00  0.00    +0.255 HD
ATOM     16 HH22 ARG A   1      -0.653   4.890   9.492  0.00  0.00    +0.255 HD
ATOM     17  NH1 ARG A   1      -0.907   4.416   7.026  0.00  0.00    -0.292 N 
ATOM     18 HH11 ARG A   1      -0.295   3.744   7.531  0.00  0.00    +0.255 HD
ATOM     19 HH12 ARG A   1      -1.071   4.305   6.005  0.00  0.00    +0.255 HD
ATOM     20  HE  ARG A   1      -2.691   7.045   7.601  0.00  0.00    +0.259 HD
ENDBRANCH  11  12
ENDBRANCH  10  11
ENDBRANCH   9  10
ENDBRANCH   6   9
ENDBRANCH   2   6
ENDBRANCH   1   3
BRANCH   1  21
ATOM     21  C   GLU A   2      -1.966   9.645  -0.645  0.00  0.00    +0.241 C 
ATOM     22  N   PHE A   3      -1.011   9.245   0.196  0.00  0.00    -0.297 N 
ATOM     23  H   PHE A   3      -1.051   9.530   1.195  0.00  0.00    +0.150 HD
ATOM     24  O   GLU A   2      -1.983   9.327  -1.833  0.00  0.00    -0.273 OA
BRANCH  22  25
ATOM     25  CA  PHE A   3       0.089   8.411  -0.275  0.00  0.00    +0.153 C 
BRANCH  25  26
ATOM     26  C   PHE A   3      -0.314   6.969  -0.598  0.00  0.00    +0.241 C 
ATOM     27  N   MET A   4      -1.545   6.604  -0.253  0.00  0.00    -0.298 N 
ATOM     28  H   MET A   4      -2.151   7.276   0.259  0.00  0.00    +0.150 HD
ATOM     29  O   PHE A   3       0.475   6.206  -1.162  0.00  0.00    -0.273 OA
BRANCH  27  30
ATOM     30  CA  MET A   4      -2.063   5.279  -0.579  0.00  0.00    +0.138 C 
BRANCH  30  31
ATOM     31  C   MET A   4      -3.084   5.408  -1.715  0.00  0.00    +0.227 C 
ATOM     32  O   MET A   4      -3.073   4.634  -2.669  0.00  0.00    -0.286 OA
ENDBRANCH  30  31
BRANCH  30  33
ATOM     33  CB  MET A   4      -2.751   4.639   0.629  0.00  0.00    +0.039 C 
BRANCH  33  34
ATOM     34  CG  MET A   4      -1.821   3.971   1.621  0.00  0.00    +0.060 C 
BRANCH  34  35
ATOM     35  SD  MET A   4      -2.773   3.205   2.947  0.00  0.00    -0.139 S 
ATOM     36  CE  MET A   4      -3.386   1.812   2.143  0.00  0.00    +0.069 C 
ENDBRANCH  34  35
ENDBRANCH  33  34
ENDBRANCH  30  33
ENDBRANCH  27  30
ENDBRANCH  25  26
BRANCH  25  37
ATOM     37  CB  PHE A   3       1.269   8.473   0.707  0.00  0.00    +0.055 C 
BRANCH  37  38
ATOM     38  CG  PHE A   3       0.916   8.134   2.132  0.00  0.00    -0.020 A 
ATOM     39  CD2 PHE A   3       0.633   9.144   3.048  0.00  0.00    -0.004 A 
ATOM     40  CE2 PHE A   3       0.328   8.839   4.369  0.00  0.00    -0.000 A 
ATOM     41  CZ  PHE A   3       0.303   7.510   4.789  0.00  0.00    -0.000 A 
ATOM     42  CE1 PHE A   3       0.583   6.492   3.885  0.00  0.00    -0.000 A 
ATOM     43  CD1 PHE A   3       0.887   6.812   2.559  0.00  0.00    -0.004 A 
ENDBRANCH  37  38
ENDBRANCH  25  37
ENDBRANCH  22  25
ENDBRANCH   1  21
BRANCH   1  44
ATOM     44  CB  GLU A   2      -2.657  12.006  -0.214  0.00  0.00    +0.041 C 
BRANCH  44  45
ATOM     45  CG  GLU A   2      -1.231  12.332   0.218  0.00  0.00    +0.116 C 
BRANCH  45  46
ATOM     46  CD  GLU A   2      -1.013  12.266   1.723  0.00  0.00    +0.365 C 
ATOM     47  OE2 GLU A   2      -2.005  12.217   2.483  0.00  0.00    -0.246 OA
ATOM     48  OE1 GLU A   2       0.166  12.283   2.144  0.00  0.00    -0.246 OA
ENDBRANCH  45  46
ENDBRANCH  44  45
ENDBRANCH   1  44
TORSDOF 20
REMARK  Name = ../refined-set-2016/2qx0/2qx0_pocket.pdb
REMARK  146 active torsions:
REMARK  status: ('A' for Active; 'I' for Inactive)
REMARK    1  A    between atoms: _1  and  _3
REMARK    2  A    between atoms: _3  and  _4
REMARK    3  A    between atoms: _7  and  _9
REMARK    4  A    between atoms: _9  and  _10
REMARK    5  A    between atoms: _9  and  _12
REMARK    6  A    between atoms: _12  and  _13
REMARK    7  A    between atoms: _16  and  _18
REMARK    8  A    between atoms: _18  and  _19
REMARK    9  A    between atoms: _21  and  _23
REMARK   10  A    between atoms: _23  and  _24
REMARK   11  A    between atoms: _23  and  _26
REMARK   12  A    between atoms: _26  and  _27
REMARK   13  A    between atoms: _29  and  _31
REMARK   14  A    between atoms: _31  and  _32
REMARK   15  A    between atoms: _31  and  _34
REMARK   16  A    between atoms: _34  and  _35
REMARK   17  A    between atoms: _40  and  _42
REMARK   18  A    between atoms: _42  and  _43
REMARK   19  A    between atoms: _42  and  _45
REMARK   20  A    between atoms: _45  and  _46
REMARK   21  A    between atoms: _51  and  _52
REMARK   22  A    between atoms: _54  and  _56
REMARK   23  A    between atoms: _56  and  _57
REMARK   24  A    between atoms: _56  and  _59
REMARK   25  A    between atoms: _59  and  _60
REMARK   26  A    between atoms: _60  and  _61
REMARK   27  A    between atoms: _61  and  _62
REMARK   28  A    between atoms: _71  and  _73
REMARK   29  A    between atoms: _73  and  _74
REMARK   30  A    between atoms: _73  and  _76
REMARK   31  A    between atoms: _76  and  _77
REMARK   32  A    between atoms: _80  and  _82
REMARK   33  A    between atoms: _82  and  _83
REMARK   34  A    between atoms: _82  and  _85
REMARK   35  A    between atoms: _85  and  _86
REMARK   36  A    between atoms: _86  and  _87
REMARK   37  A    between atoms: _87  and  _88
REMARK   38  A    between atoms: _88  and  _89
REMARK   39  A    between atoms: _94  and  _95
REMARK   40  A    between atoms: _100  and  _102
REMARK   41  A    between atoms: _102  and  _103
REMARK   42  A    between atoms: _102  and  _105
REMARK   43  A    between atoms: _105  and  _106
REMARK   44  A    between atoms: _109  and  _111
REMARK   45  A    between atoms: _111  and  _112
REMARK   46  A    between atoms: _114  and  _116
REMARK   47  A    between atoms: _116  and  _117
REMARK   48  A    between atoms: _116  and  _119
REMARK   49  A    between atoms: _119  and  _120
REMARK   50  A    between atoms: _120  and  _121
REMARK   51  A    between atoms: _127  and  _128
REMARK   52  A    between atoms: _133  and  _135
REMARK   53  A    between atoms: _135  and  _136
REMARK   54  A    between atoms: _135  and  _138
REMARK   55  A    between atoms: _138  and  _139
REMARK   56  A    between atoms: _142  and  _144
REMARK   57  A    between atoms: _144  and  _145
REMARK   58  A    between atoms: _144  and  _147
REMARK   59  A    between atoms: _147  and  _148
REMARK   60  A    between atoms: _154  and  _156
REMARK   61  A    between atoms: _156  and  _157
REMARK   62  A    between atoms: _156  and  _159
REMARK   63  A    between atoms: _159  and  _160
REMARK   64  A    between atoms: _163  and  _165
REMARK   65  A    between atoms: _165  and  _166
REMARK   66  A    between atoms: _165  and  _168
REMARK   67  A    between atoms: _168  and  _169
REMARK   68  A    between atoms: _174  and  _176
REMARK   69  A    between atoms: _176  and  _177
REMARK   70  A    between atoms: _180  and  _182
REMARK   71  A    between atoms: _182  and  _183
REMARK   72  A    between atoms: _182  and  _185
REMARK   73  A    between atoms: _185  and  _186
REMARK   74  A    between atoms: _186  and  _187
REMARK   75  A    between atoms: _190  and  _192
REMARK   76  A    between atoms: _192  and  _193
REMARK   77  A    between atoms: _192  and  _195
REMARK   78  A    between atoms: _195  and  _196
REMARK   79  A    between atoms: _196  and  _197
REMARK   80  A    between atoms: _197  and  _198
REMARK   81  A    between atoms: _207  and  _209
REMARK   82  A    between atoms: _209  and  _210
REMARK   83  A    between atoms: _209  and  _212
REMARK   84  A    between atoms: _212  and  _213
REMARK   85  A    between atoms: _216  and  _218
REMARK   86  A    between atoms: _227  and  _230
REMARK   87  A    between atoms: _230  and  _231
REMARK   88  A    between atoms: _236  and  _237
REMARK   89  A    between atoms: _243  and  _245
REMARK   90  A    between atoms: _245  and  _246
REMARK   91  A    between atoms: _245  and  _248
REMARK   92  A    between atoms: _248  and  _249
REMARK   93  A    between atoms: _254  and  _256
REMARK   94  A    between atoms: _256  and  _257
REMARK   95  A    between atoms: _256  and  _259
REMARK   96  A    between atoms: _259  and  _260
REMARK   97  A    between atoms: _265  and  _266
REMARK   98  A    between atoms: _268  and  _270
REMARK   99  A    between atoms: _270  and  _271
REMARK  100  A    between atoms: _270  and  _273
REMARK  101  A    between atoms: _273  and  _274
REMARK  102  A    between atoms: _274  and  _275
REMARK  103  A    between atoms: _275  and  _276
REMARK  104  A    between atoms: _285  and  _287
REMARK  105  A    between atoms: _287  and  _288
REMARK  106  A    between atoms: _287  and  _290
REMARK  107  A    between atoms: _290  and  _291
REMARK  108  A    between atoms: _291  and  _292
REMARK  109  A    between atoms: _295  and  _297
REMARK  110  A    between atoms: _297  and  _298
REMARK  111  A    between atoms: _297  and  _300
REMARK  112  A    between atoms: _300  and  _301
REMARK  113  A    between atoms: _307  and  _309
REMARK  114  A    between atoms: _309  and  _310
REMARK  115  A    between atoms: _309  and  _312
REMARK  116  A    between atoms: _312  and  _313
REMARK  117  A    between atoms: _313  and  _314
REMARK  118  A    between atoms: _316  and  _318
REMARK  119  A    between atoms: _318  and  _319
REMARK  120  A    between atoms: _318  and  _321
REMARK  121  A    between atoms: _321  and  _322
REMARK  122  A    between atoms: _327  and  _329
REMARK  123  A    between atoms: _329  and  _330
REMARK  124  A    between atoms: _329  and  _332
REMARK  125  A    between atoms: _332  and  _333
REMARK  126  A    between atoms: _336  and  _338
REMARK  127  A    between atoms: _338  and  _339
REMARK  128  A    between atoms: _338  and  _341
REMARK  129  A    between atoms: _341  and  _342
REMARK  130  A    between atoms: _342  and  _343
REMARK  131  A    between atoms: _348  and  _350
REMARK  132  A    between atoms: _350  and  _351
REMARK  133  A    between atoms: _350  and  _353
REMARK  134  A    between atoms: _353  and  _354
REMARK  135  A    between atoms: _354  and  _355
REMARK  136  A    between atoms: _355  and  _356
REMARK  137  A    between atoms: _365  and  _367
REMARK  138  A    between atoms: _367  and  _368
REMARK  139  A    between atoms: _367  and  _370
REMARK  140  A    between atoms: _370  and  _371
REMARK  141  A    between atoms: _374  and  _376
REMARK  142  A    between atoms: _376  and  _377
REMARK  143  A    between atoms: _376  and  _379
REMARK  144  A    between atoms: _379  and  _380
REMARK  145  A    between atoms: _380  and  _381
REMARK  146  A    between atoms: _381  and  _382
REMARK                            x       y       z     vdW  Elec       q    Type
REMARK                         _______ _______ _______ _____ _____    ______ ____
ROOT
ATOM      1  CB  ASN A   1      -1.380  15.963   1.848  0.00  0.00    +0.110 C 
ENDROOT
BRANCH   1   2
ATOM      2  CG  ASN A   1      -2.810  16.016   2.352  0.00  0.00    +0.221 C 
ATOM      3  ND2 ASN A   1      -3.377  14.852   2.666  0.00  0.00    -0.329 N 
ATOM      4 HD21 ASN A   1      -4.350  14.830   3.033  0.00  0.00    +0.145 HD
ATOM      5 HD22 ASN A   1      -2.847  13.966   2.544  0.00  0.00    +0.145 HD
ATOM      6  OD1 ASN A   1      -3.393  17.092   2.477  0.00  0.00    -0.275 OA
ENDBRANCH   1   2
BRANCH   1   7
ATOM      7  CA  ASN A   1      -1.088  17.027   0.779  0.00  0.00    +0.142 C 
BRANCH   7   8
ATOM      8  N   ASN A   1      -1.842  16.743  -0.439  0.00  0.00    -0.239 NA
ATOM      9  H   ASN A   1      -2.669  17.329  -0.670  0.00  0.00    +0.142 HD
ENDBRANCH   7   8
BRANCH   7  10
ATOM     10  C   ASN A   1       0.422  17.121   0.581  0.00  0.00    +0.225 C 
ATOM     11  O   ASN A   1       1.189  16.637   1.413  0.00  0.00    -0.287 OA
ENDBRANCH   7  10
ENDBRANCH   1   7
TORSDOF 4
REMARK  Name = ../refined-set-2016/2qx0/2qx0_pocket.pdb
REMARK  146 active torsions:
REMARK  status: ('A' for Active; 'I' for Inactive)
REMARK    1  A    between atoms: _1  and  _3
REMARK    2  A    between atoms: _3  and  _4
REMARK    3  A    between atoms: _7  and  _9
REMARK    4  A    between atoms: _9  and  _10
REMARK    5  A    between atoms: _9  and  _12
REMARK    6  A    between atoms: _12  and  _13
REMARK    7  A    between atoms: _16  and  _18
REMARK    8  A    between atoms: _18  and  _19
REMARK    9  A    between atoms: _21  and  _23
REMARK   10  A    between atoms: _23  and  _24
REMARK   11  A    between atoms: _23  and  _26
REMARK   12  A    between atoms: _26  and  _27
REMARK   13  A    between atoms: _29  and  _31
REMARK   14  A    between atoms: _31  and  _32
REMARK   15  A    between atoms: _31  and  _34
REMARK   16  A    between atoms: _34  and  _35
REMARK   17  A    between atoms: _40  and  _42
REMARK   18  A    between atoms: _42  and  _43
REMARK   19  A    between atoms: _42  and  _45
REMARK   20  A    between atoms: _45  and  _46
REMARK   21  A    between atoms: _51  and  _52
REMARK   22  A    between atoms: _54  and  _56
REMARK   23  A    between atoms: _56  and  _57
REMARK   24  A    between atoms: _56  and  _59
REMARK   25  A    between atoms: _59  and  _60
REMARK   26  A    between atoms: _60  and  _61
REMARK   27  A    between atoms: _61  and  _62
REMARK   28  A    between atoms: _71  and  _73
REMARK   29  A    between atoms: _73  and  _74
REMARK   30  A    between atoms: _73  and  _76
REMARK   31  A    between atoms: _76  and  _77
REMARK   32  A    between atoms: _80  and  _82
REMARK   33  A    between atoms: _82  and  _83
REMARK   34  A    between atoms: _82  and  _85
REMARK   35  A    between atoms: _85  and  _86
REMARK   36  A    between atoms: _86  and  _87
REMARK   37  A    between atoms: _87  and  _88
REMARK   38  A    between atoms: _88  and  _89
REMARK   39  A    between atoms: _94  and  _95
REMARK   40  A    between atoms: _100  and  _102
REMARK   41  A    between atoms: _102  and  _103
REMARK   42  A    between atoms: _102  and  _105
REMARK   43  A    between atoms: _105  and  _106
REMARK   44  A    between atoms: _109  and  _111
REMARK   45  A    between atoms: _111  and  _112
REMARK   46  A    between atoms: _114  and  _116
REMARK   47  A    between atoms: _116  and  _117
REMARK   48  A    between atoms: _116  and  _119
REMARK   49  A    between atoms: _119  and  _120
REMARK   50  A    between atoms: _120  and  _121
REMARK   51  A    between atoms: _127  and  _128
REMARK   52  A    between atoms: _133  and  _135
REMARK   53  A    between atoms: _135  and  _136
REMARK   54  A    between atoms: _135  and  _138
REMARK   55  A    between atoms: _138  and  _139
REMARK   56  A    between atoms: _142  and  _144
REMARK   57  A    between atoms: _144  and  _145
REMARK   58  A    between atoms: _144  and  _147
REMARK   59  A    between atoms: _147  and  _148
REMARK   60  A    between atoms: _154  and  _156
REMARK   61  A    between atoms: _156  and  _157
REMARK   62  A    between atoms: _156  and  _159
REMARK   63  A    between atoms: _159  and  _160
REMARK   64  A    between atoms: _163  and  _165
REMARK   65  A    between atoms: _165  and  _166
REMARK   66  A    between atoms: _165  and  _168
REMARK   67  A    between atoms: _168  and  _169
REMARK   68  A    between atoms: _174  and  _176
REMARK   69  A    between atoms: _176  and  _177
REMARK   70  A    between atoms: _180  and  _182
REMARK   71  A    between atoms: _182  and  _183
REMARK   72  A    between atoms: _182  and  _185
REMARK   73  A    between atoms: _185  and  _186
REMARK   74  A    between atoms: _186  and  _187
REMARK   75  A    between atoms: _190  and  _192
REMARK   76  A    between atoms: _192  and  _193
REMARK   77  A    between atoms: _192  and  _195
REMARK   78  A    between atoms: _195  and  _196
REMARK   79  A    between atoms: _196  and  _197
REMARK   80  A    between atoms: _197  and  _198
REMARK   81  A    between atoms: _207  and  _209
REMARK   82  A    between atoms: _209  and  _210
REMARK   83  A    between atoms: _209  and  _212
REMARK   84  A    between atoms: _212  and  _213
REMARK   85  A    between atoms: _216  and  _218
REMARK   86  A    between atoms: _227  and  _230
REMARK   87  A    between atoms: _230  and  _231
REMARK   88  A    between atoms: _236  and  _237
REMARK   89  A    between atoms: _243  and  _245
REMARK   90  A    between atoms: _245  and  _246
REMARK   91  A    between atoms: _245  and  _248
REMARK   92  A    between atoms: _248  and  _249
REMARK   93  A    between atoms: _254  and  _256
REMARK   94  A    between atoms: _256  and  _257
REMARK   95  A    between atoms: _256  and  _259
REMARK   96  A    between atoms: _259  and  _260
REMARK   97  A    between atoms: _265  and  _266
REMARK   98  A    between atoms: _268  and  _270
REMARK   99  A    between atoms: _270  and  _271
REMARK  100  A    between atoms: _270  and  _273
REMARK  101  A    between atoms: _273  and  _274
REMARK  102  A    between atoms: _274  and  _275
REMARK  103  A    between atoms: _275  and  _276
REMARK  104  A    between atoms: _285  and  _287
REMARK  105  A    between atoms: _287  and  _288
REMARK  106  A    between atoms: _287  and  _290
REMARK  107  A    between atoms: _290  and  _291
REMARK  108  A    between atoms: _291  and  _292
REMARK  109  A    between atoms: _295  and  _297
REMARK  110  A    between atoms: _297  and  _298
REMARK  111  A    between atoms: _297  and  _300
REMARK  112  A    between atoms: _300  and  _301
REMARK  113  A    between atoms: _307  and  _309
REMARK  114  A    between atoms: _309  and  _310
REMARK  115  A    between atoms: _309  and  _312
REMARK  116  A    between atoms: _312  and  _313
REMARK  117  A    between atoms: _313  and  _314
REMARK  118  A    between atoms: _316  and  _318
REMARK  119  A    between atoms: _318  and  _319
REMARK  120  A    between atoms: _318  and  _321
REMARK  121  A    between atoms: _321  and  _322
REMARK  122  A    between atoms: _327  and  _329
REMARK  123  A    between atoms: _329  and  _330
REMARK  124  A    between atoms: _329  and  _332
REMARK  125  A    between atoms: _332  and  _333
REMARK  126  A    between atoms: _336  and  _338
REMARK  127  A    between atoms: _338  and  _339
REMARK  128  A    between atoms: _338  and  _341
REMARK  129  A    between atoms: _341  and  _342
REMARK  130  A    between atoms: _342  and  _343
REMARK  131  A    between atoms: _348  and  _350
REMARK  132  A    between atoms: _350  and  _351
REMARK  133  A    between atoms: _350  and  _353
REMARK  134  A    between atoms: _353  and  _354
REMARK  135  A    between atoms: _354  and  _355
REMARK  136  A    between atoms: _355  and  _356
REMARK  137  A    between atoms: _365  and  _367
REMARK  138  A    between atoms: _367  and  _368
REMARK  139  A    between atoms: _367  and  _370
REMARK  140  A    between atoms: _370  and  _371
REMARK  141  A    between atoms: _374  and  _376
REMARK  142  A    between atoms: _376  and  _377
REMARK  143  A    between atoms: _376  and  _379
REMARK  144  A    between atoms: _379  and  _380
REMARK  145  A    between atoms: _380  and  _381
REMARK  146  A    between atoms: _381  and  _382
REMARK                            x       y       z     vdW  Elec       q    Type
REMARK                         _______ _______ _______ _____ _____    ______ ____
ROOT
ATOM      1  CA  LEU A   1       2.494  14.601  -2.631  0.00  0.00    +0.133 C 
ENDROOT
BRANCH   1   2
ATOM      2  N   LEU A   1       2.045  15.773  -1.891  0.00  0.00    -0.239 NA
ATOM      3  H   LEU A   1       1.038  15.861  -1.646  0.00  0.00    +0.142 HD
ENDBRANCH   1   2
BRANCH   1   4
ATOM      4  C   LEU A   1       2.959  14.962  -4.039  0.00  0.00    +0.224 C 
ATOM      5  O   LEU A   1       2.231  15.591  -4.805  0.00  0.00    -0.287 OA
ENDBRANCH   1   4
BRANCH   1   6
ATOM      6  CB  LEU A   1       1.364  13.560  -2.699  0.00  0.00    +0.025 C 
BRANCH   6   7
ATOM      7  CG  LEU A   1       1.516  12.384  -3.674  0.00  0.00    +0.002 C 
ATOM      8  CD2 LEU A   1       0.744  11.179  -3.153  0.00  0.00    +0.000 C 
ATOM      9  CD1 LEU A   1       1.017  12.784  -5.057  0.00  0.00    +0.000 C 
ENDBRANCH   6   7
ENDBRANCH   1   6
TORSDOF 4
REMARK  Name = ../refined-set-2016/2qx0/2qx0_pocket.pdb
REMARK  146 active torsions:
REMARK  status: ('A' for Active; 'I' for Inactive)
REMARK    1  A    between atoms: _1  and  _3
REMARK    2  A    between atoms: _3  and  _4
REMARK    3  A    between atoms: _7  and  _9
REMARK    4  A    between atoms: _9  and  _10
REMARK    5  A    between atoms: _9  and  _12
REMARK    6  A    between atoms: _12  and  _13
REMARK    7  A    between atoms: _16  and  _18
REMARK    8  A    between atoms: _18  and  _19
REMARK    9  A    between atoms: _21  and  _23
REMARK   10  A    between atoms: _23  and  _24
REMARK   11  A    between atoms: _23  and  _26
REMARK   12  A    between atoms: _26  and  _27
REMARK   13  A    between atoms: _29  and  _31
REMARK   14  A    between atoms: _31  and  _32
REMARK   15  A    between atoms: _31  and  _34
REMARK   16  A    between atoms: _34  and  _35
REMARK   17  A    between atoms: _40  and  _42
REMARK   18  A    between atoms: _42  and  _43
REMARK   19  A    between atoms: _42  and  _45
REMARK   20  A    between atoms: _45  and  _46
REMARK   21  A    between atoms: _51  and  _52
REMARK   22  A    between atoms: _54  and  _56
REMARK   23  A    between atoms: _56  and  _57
REMARK   24  A    between atoms: _56  and  _59
REMARK   25  A    between atoms: _59  and  _60
REMARK   26  A    between atoms: _60  and  _61
REMARK   27  A    between atoms: _61  and  _62
REMARK   28  A    between atoms: _71  and  _73
REMARK   29  A    between atoms: _73  and  _74
REMARK   30  A    between atoms: _73  and  _76
REMARK   31  A    between atoms: _76  and  _77
REMARK   32  A    between atoms: _80  and  _82
REMARK   33  A    between atoms: _82  and  _83
REMARK   34  A    between atoms: _82  and  _85
REMARK   35  A    between atoms: _85  and  _86
REMARK   36  A    between atoms: _86  and  _87
REMARK   37  A    between atoms: _87  and  _88
REMARK   38  A    between atoms: _88  and  _89
REMARK   39  A    between atoms: _94  and  _95
REMARK   40  A    between atoms: _100  and  _102
REMARK   41  A    between atoms: _102  and  _103
REMARK   42  A    between atoms: _102  and  _105
REMARK   43  A    between atoms: _105  and  _106
REMARK   44  A    between atoms: _109  and  _111
REMARK   45  A    between atoms: _111  and  _112
REMARK   46  A    between atoms: _114  and  _116
REMARK   47  A    between atoms: _116  and  _117
REMARK   48  A    between atoms: _116  and  _119
REMARK   49  A    between atoms: _119  and  _120
REMARK   50  A    between atoms: _120  and  _121
REMARK   51  A    between atoms: _127  and  _128
REMARK   52  A    between atoms: _133  and  _135
REMARK   53  A    between atoms: _135  and  _136
REMARK   54  A    between atoms: _135  and  _138
REMARK   55  A    between atoms: _138  and  _139
REMARK   56  A    between atoms: _142  and  _144
REMARK   57  A    between atoms: _144  and  _145
REMARK   58  A    between atoms: _144  and  _147
REMARK   59  A    between atoms: _147  and  _148
REMARK   60  A    between atoms: _154  and  _156
REMARK   61  A    between atoms: _156  and  _157
REMARK   62  A    between atoms: _156  and  _159
REMARK   63  A    between atoms: _159  and  _160
REMARK   64  A    between atoms: _163  and  _165
REMARK   65  A    between atoms: _165  and  _166
REMARK   66  A    between atoms: _165  and  _168
REMARK   67  A    between atoms: _168  and  _169
REMARK   68  A    between atoms: _174  and  _176
REMARK   69  A    between atoms: _176  and  _177
REMARK   70  A    between atoms: _180  and  _182
REMARK   71  A    between atoms: _182  and  _183
REMARK   72  A    between atoms: _182  and  _185
REMARK   73  A    between atoms: _185  and  _186
REMARK   74  A    between atoms: _186  and  _187
REMARK   75  A    between atoms: _190  and  _192
REMARK   76  A    between atoms: _192  and  _193
REMARK   77  A    between atoms: _192  and  _195
REMARK   78  A    between atoms: _195  and  _196
REMARK   79  A    between atoms: _196  and  _197
REMARK   80  A    between atoms: _197  and  _198
REMARK   81  A    between atoms: _207  and  _209
REMARK   82  A    between atoms: _209  and  _210
REMARK   83  A    between atoms: _209  and  _212
REMARK   84  A    between atoms: _212  and  _213
REMARK   85  A    between atoms: _216  and  _218
REMARK   86  A    between atoms: _227  and  _230
REMARK   87  A    between atoms: _230  and  _231
REMARK   88  A    between atoms: _236  and  _237
REMARK   89  A    between atoms: _243  and  _245
REMARK   90  A    between atoms: _245  and  _246
REMARK   91  A    between atoms: _245  and  _248
REMARK   92  A    between atoms: _248  and  _249
REMARK   93  A    between atoms: _254  and  _256
REMARK   94  A    between atoms: _256  and  _257
REMARK   95  A    between atoms: _256  and  _259
REMARK   96  A    between atoms: _259  and  _260
REMARK   97  A    between atoms: _265  and  _266
REMARK   98  A    between atoms: _268  and  _270
REMARK   99  A    between atoms: _270  and  _271
REMARK  100  A    between atoms: _270  and  _273
REMARK  101  A    between atoms: _273  and  _274
REMARK  102  A    between atoms: _274  and  _275
REMARK  103  A    between atoms: _275  and  _276
REMARK  104  A    between atoms: _285  and  _287
REMARK  105  A    between atoms: _287  and  _288
REMARK  106  A    between atoms: _287  and  _290
REMARK  107  A    between atoms: _290  and  _291
REMARK  108  A    between atoms: _291  and  _292
REMARK  109  A    between atoms: _295  and  _297
REMARK  110  A    between atoms: _297  and  _298
REMARK  111  A    between atoms: _297  and  _300
REMARK  112  A    between atoms: _300  and  _301
REMARK  113  A    between atoms: _307  and  _309
REMARK  114  A    between atoms: _309  and  _310
REMARK  115  A    between atoms: _309  and  _312
REMARK  116  A    between atoms: _312  and  _313
REMARK  117  A    between atoms: _313  and  _314
REMARK  118  A    between atoms: _316  and  _318
REMARK  119  A    between atoms: _318  and  _319
REMARK  120  A    between atoms: _318  and  _321
REMARK  121  A    between atoms: _321  and  _322
REMARK  122  A    between atoms: _327  and  _329
REMARK  123  A    between atoms: _329  and  _330
REMARK  124  A    between atoms: _329  and  _332
REMARK  125  A    between atoms: _332  and  _333
REMARK  126  A    between atoms: _336  and  _338
REMARK  127  A    between atoms: _338  and  _339
REMARK  128  A    between atoms: _338  and  _341
REMARK  129  A    between atoms: _341  and  _342
REMARK  130  A    between atoms: _342  and  _343
REMARK  131  A    between atoms: _348  and  _350
REMARK  132  A    between atoms: _350  and  _351
REMARK  133  A    between atoms: _350  and  _353
REMARK  134  A    between atoms: _353  and  _354
REMARK  135  A    between atoms: _354  and  _355
REMARK  136  A    between atoms: _355  and  _356
REMARK  137  A    between atoms: _365  and  _367
REMARK  138  A    between atoms: _367  and  _368
REMARK  139  A    between atoms: _367  and  _370
REMARK  140  A    between atoms: _370  and  _371
REMARK  141  A    between atoms: _374  and  _376
REMARK  142  A    between atoms: _376  and  _377
REMARK  143  A    between atoms: _376  and  _379
REMARK  144  A    between atoms: _379  and  _380
REMARK  145  A    between atoms: _380  and  _381
REMARK  146  A    between atoms: _381  and  _382
REMARK                            x       y       z     vdW  Elec       q    Type
REMARK                         _______ _______ _______ _____ _____    ______ ____
ROOT
ATOM      1  CB  GLN A   1       3.524   8.490  19.912  0.00  0.00    +0.035 C 
ENDROOT
BRANCH   1   2
ATOM      2  CA  GLN A   1       3.719   7.999  21.357  0.00  0.00    +0.134 C 
BRANCH   2   3
ATOM      3  N   GLN A   1       2.563   8.328  22.194  0.00  0.00    -0.239 NA
ATOM      4  H   GLN A   1       1.812   8.940  21.815  0.00  0.00    +0.142 HD
ENDBRANCH   2   3
BRANCH   2   5
ATOM      5  C   GLN A   1       4.977   8.610  21.952  0.00  0.00    +0.224 C 
ATOM      6  O   GLN A   1       6.060   8.027  21.870  0.00  0.00    -0.287 OA
ENDBRANCH   2   5
ENDBRANCH   1   2
BRANCH   1   7
ATOM      7  CG  GLN A   1       2.325   7.839  19.202  0.00  0.00    +0.087 C 
BRANCH   7   8
ATOM      8  CD  GLN A   1       2.246   8.148  17.711  0.00  0.00    +0.219 C 
ATOM      9  OE1 GLN A   1       2.538   9.256  17.277  0.00  0.00    -0.275 OA
ATOM     10  NE2 GLN A   1       1.822   7.159  16.922  0.00  0.00    -0.329 N 
ATOM     11 HE21 GLN A   1       1.584   6.233  17.331  0.00  0.00    +0.145 HD
ATOM     12 HE22 GLN A   1       1.729   7.314  15.898  0.00  0.00    +0.145 HD
ENDBRANCH   7   8
ENDBRANCH   1   7
TORSDOF 5
REMARK  Name = ../refined-set-2016/2qx0/2qx0_pocket.pdb
REMARK  146 active torsions:
REMARK  status: ('A' for Active; 'I' for Inactive)
REMARK    1  A    between atoms: _1  and  _3
REMARK    2  A    between atoms: _3  and  _4
REMARK    3  A    between atoms: _7  and  _9
REMARK    4  A    between atoms: _9  and  _10
REMARK    5  A    between atoms: _9  and  _12
REMARK    6  A    between atoms: _12  and  _13
REMARK    7  A    between atoms: _16  and  _18
REMARK    8  A    between atoms: _18  and  _19
REMARK    9  A    between atoms: _21  and  _23
REMARK   10  A    between atoms: _23  and  _24
REMARK   11  A    between atoms: _23  and  _26
REMARK   12  A    between atoms: _26  and  _27
REMARK   13  A    between atoms: _29  and  _31
REMARK   14  A    between atoms: _31  and  _32
REMARK   15  A    between atoms: _31  and  _34
REMARK   16  A    between atoms: _34  and  _35
REMARK   17  A    between atoms: _40  and  _42
REMARK   18  A    between atoms: _42  and  _43
REMARK   19  A    between atoms: _42  and  _45
REMARK   20  A    between atoms: _45  and  _46
REMARK   21  A    between atoms: _51  and  _52
REMARK   22  A    between atoms: _54  and  _56
REMARK   23  A    between atoms: _56  and  _57
REMARK   24  A    between atoms: _56  and  _59
REMARK   25  A    between atoms: _59  and  _60
REMARK   26  A    between atoms: _60  and  _61
REMARK   27  A    between atoms: _61  and  _62
REMARK   28  A    between atoms: _71  and  _73
REMARK   29  A    between atoms: _73  and  _74
REMARK   30  A    between atoms: _73  and  _76
REMARK   31  A    between atoms: _76  and  _77
REMARK   32  A    between atoms: _80  and  _82
REMARK   33  A    between atoms: _82  and  _83
REMARK   34  A    between atoms: _82  and  _85
REMARK   35  A    between atoms: _85  and  _86
REMARK   36  A    between atoms: _86  and  _87
REMARK   37  A    between atoms: _87  and  _88
REMARK   38  A    between atoms: _88  and  _89
REMARK   39  A    between atoms: _94  and  _95
REMARK   40  A    between atoms: _100  and  _102
REMARK   41  A    between atoms: _102  and  _103
REMARK   42  A    between atoms: _102  and  _105
REMARK   43  A    between atoms: _105  and  _106
REMARK   44  A    between atoms: _109  and  _111
REMARK   45  A    between atoms: _111  and  _112
REMARK   46  A    between atoms: _114  and  _116
REMARK   47  A    between atoms: _116  and  _117
REMARK   48  A    between atoms: _116  and  _119
REMARK   49  A    between atoms: _119  and  _120
REMARK   50  A    between atoms: _120  and  _121
REMARK   51  A    between atoms: _127  and  _128
REMARK   52  A    between atoms: _133  and  _135
REMARK   53  A    between atoms: _135  and  _136
REMARK   54  A    between atoms: _135  and  _138
REMARK   55  A    between atoms: _138  and  _139
REMARK   56  A    between atoms: _142  and  _144
REMARK   57  A    between atoms: _144  and  _145
REMARK   58  A    between atoms: _144  and  _147
REMARK   59  A    between atoms: _147  and  _148
REMARK   60  A    between atoms: _154  and  _156
REMARK   61  A    between atoms: _156  and  _157
REMARK   62  A    between atoms: _156  and  _159
REMARK   63  A    between atoms: _159  and  _160
REMARK   64  A    between atoms: _163  and  _165
REMARK   65  A    between atoms: _165  and  _166
REMARK   66  A    between atoms: _165  and  _168
REMARK   67  A    between atoms: _168  and  _169
REMARK   68  A    between atoms: _174  and  _176
REMARK   69  A    between atoms: _176  and  _177
REMARK   70  A    between atoms: _180  and  _182
REMARK   71  A    between atoms: _182  and  _183
REMARK   72  A    between atoms: _182  and  _185
REMARK   73  A    between atoms: _185  and  _186
REMARK   74  A    between atoms: _186  and  _187
REMARK   75  A    between atoms: _190  and  _192
REMARK   76  A    between atoms: _192  and  _193
REMARK   77  A    between atoms: _192  and  _195
REMARK   78  A    between atoms: _195  and  _196
REMARK   79  A    between atoms: _196  and  _197
REMARK   80  A    between atoms: _197  and  _198
REMARK   81  A    between atoms: _207  and  _209
REMARK   82  A    between atoms: _209  and  _210
REMARK   83  A    between atoms: _209  and  _212
REMARK   84  A    between atoms: _212  and  _213
REMARK   85  A    between atoms: _216  and  _218
REMARK   86  A    between atoms: _227  and  _230
REMARK   87  A    between atoms: _230  and  _231
REMARK   88  A    between atoms: _236  and  _237
REMARK   89  A    between atoms: _243  and  _245
REMARK   90  A    between atoms: _245  and  _246
REMARK   91  A    between atoms: _245  and  _248
REMARK   92  A    between atoms: _248  and  _249
REMARK   93  A    between atoms: _254  and  _256
REMARK   94  A    between atoms: _256  and  _257
REMARK   95  A    between atoms: _256  and  _259
REMARK   96  A    between atoms: _259  and  _260
REMARK   97  A    between atoms: _265  and  _266
REMARK   98  A    between atoms: _268  and  _270
REMARK   99  A    between atoms: _270  and  _271
REMARK  100  A    between atoms: _270  and  _273
REMARK  101  A    between atoms: _273  and  _274
REMARK  102  A    between atoms: _274  and  _275
REMARK  103  A    between atoms: _275  and  _276
REMARK  104  A    between atoms: _285  and  _287
REMARK  105  A    between atoms: _287  and  _288
REMARK  106  A    between atoms: _287  and  _290
REMARK  107  A    between atoms: _290  and  _291
REMARK  108  A    between atoms: _291  and  _292
REMARK  109  A    between atoms: _295  and  _297
REMARK  110  A    between atoms: _297  and  _298
REMARK  111  A    between atoms: _297  and  _300
REMARK  112  A    between atoms: _300  and  _301
REMARK  113  A    between atoms: _307  and  _309
REMARK  114  A    between atoms: _309  and  _310
REMARK  115  A    between atoms: _309  and  _312
REMARK  116  A    between atoms: _312  and  _313
REMARK  117  A    between atoms: _313  and  _314
REMARK  118  A    between atoms: _316  and  _318
REMARK  119  A    between atoms: _318  and  _319
REMARK  120  A    between atoms: _318  and  _321
REMARK  121  A    between atoms: _321  and  _322
REMARK  122  A    between atoms: _327  and  _329
REMARK  123  A    between atoms: _329  and  _330
REMARK  124  A    between atoms: _329  and  _332
REMARK  125  A    between atoms: _332  and  _333
REMARK  126  A    between atoms: _336  and  _338
REMARK  127  A    between atoms: _338  and  _339
REMARK  128  A    between atoms: _338  and  _341
REMARK  129  A    between atoms: _341  and  _342
REMARK  130  A    between atoms: _342  and  _343
REMARK  131  A    between atoms: _348  and  _350
REMARK  132  A    between atoms: _350  and  _351
REMARK  133  A    between atoms: _350  and  _353
REMARK  134  A    between atoms: _353  and  _354
REMARK  135  A    between atoms: _354  and  _355
REMARK  136  A    between atoms: _355  and  _356
REMARK  137  A    between atoms: _365  and  _367
REMARK  138  A    between atoms: _367  and  _368
REMARK  139  A    between atoms: _367  and  _370
REMARK  140  A    between atoms: _370  and  _371
REMARK  141  A    between atoms: _374  and  _376
REMARK  142  A    between atoms: _376  and  _377
REMARK  143  A    between atoms: _376  and  _379
REMARK  144  A    between atoms: _379  and  _380
REMARK  145  A    between atoms: _380  and  _381
REMARK  146  A    between atoms: _381  and  _382
REMARK                            x       y       z     vdW  Elec       q    Type
REMARK                         _______ _______ _______ _____ _____    ______ ____
ROOT
ATOM      1  NE  ARG A   1       9.862  -0.119  12.399  0.00  0.00    -0.265 N 
ATOM      2  CZ  ARG A   1       8.692   0.338  12.838  0.00  0.00    +0.342 C 
ATOM      3  NH2 ARG A   1       8.522   1.633  13.061  0.00  0.00    -0.292 N 
ATOM      4 HH21 ARG A   1       7.606   1.986  13.404  0.00  0.00    +0.255 HD
ATOM      5 HH22 ARG A   1       9.305   2.297  12.893  0.00  0.00    +0.255 HD
ATOM      6  NH1 ARG A   1       7.688  -0.498  13.046  0.00  0.00    -0.292 N 
ATOM      7 HH11 ARG A   1       6.774  -0.138  13.389  0.00  0.00    +0.255 HD
ATOM      8 HH12 ARG A   1       7.812  -1.515  12.866  0.00  0.00    +0.255 HD
ATOM      9  HE  ARG A   1      10.627   0.570  12.248  0.00  0.00    +0.259 HD
ENDROOT
BRANCH   1  10
ATOM     10  CD  ARG A   1      10.143  -1.522  12.116  0.00  0.00    +0.174 C 
BRANCH  10  11
ATOM     11  CG  ARG A   1      10.407  -2.326  13.377  0.00  0.00    +0.045 C 
BRANCH  11  12
ATOM     12  CB  ARG A   1      11.774  -2.004  13.966  0.00  0.00    +0.029 C 
BRANCH  12  13
ATOM     13  CA  ARG A   1      11.996  -2.581  15.367  0.00  0.00    +0.133 C 
BRANCH  13  14
ATOM     14  N   ARG A   1      13.365  -2.321  15.802  0.00  0.00    -0.239 NA
ATOM     15  H   ARG A   1      14.031  -1.857  15.152  0.00  0.00    +0.142 HD
ENDBRANCH  13  14
BRANCH  13  16
ATOM     16  C   ARG A   1      11.665  -4.073  15.372  0.00  0.00    +0.224 C 
ATOM     17  O   ARG A   1      10.595  -4.482  15.831  0.00  0.00    -0.287 OA
ENDBRANCH  13  16
ENDBRANCH  12  13
ENDBRANCH  11  12
ENDBRANCH  10  11
ENDBRANCH   1  10
TORSDOF 6
REMARK  Name = ../refined-set-2016/2qx0/2qx0_pocket.pdb
REMARK  146 active torsions:
REMARK  status: ('A' for Active; 'I' for Inactive)
REMARK    1  A    between atoms: _1  and  _3
REMARK    2  A    between atoms: _3  and  _4
REMARK    3  A    between atoms: _7  and  _9
REMARK    4  A    between atoms: _9  and  _10
REMARK    5  A    between atoms: _9  and  _12
REMARK    6  A    between atoms: _12  and  _13
REMARK    7  A    between atoms: _16  and  _18
REMARK    8  A    between atoms: _18  and  _19
REMARK    9  A    between atoms: _21  and  _23
REMARK   10  A    between atoms: _23  and  _24
REMARK   11  A    between atoms: _23  and  _26
REMARK   12  A    between atoms: _26  and  _27
REMARK   13  A    between atoms: _29  and  _31
REMARK   14  A    between atoms: _31  and  _32
REMARK   15  A    between atoms: _31  and  _34
REMARK   16  A    between atoms: _34  and  _35
REMARK   17  A    between atoms: _40  and  _42
REMARK   18  A    between atoms: _42  and  _43
REMARK   19  A    between atoms: _42  and  _45
REMARK   20  A    between atoms: _45  and  _46
REMARK   21  A    between atoms: _51  and  _52
REMARK   22  A    between atoms: _54  and  _56
REMARK   23  A    between atoms: _56  and  _57
REMARK   24  A    between atoms: _56  and  _59
REMARK   25  A    between atoms: _59  and  _60
REMARK   26  A    between atoms: _60  and  _61
REMARK   27  A    between atoms: _61  and  _62
REMARK   28  A    between atoms: _71  and  _73
REMARK   29  A    between atoms: _73  and  _74
REMARK   30  A    between atoms: _73  and  _76
REMARK   31  A    between atoms: _76  and  _77
REMARK   32  A    between atoms: _80  and  _82
REMARK   33  A    between atoms: _82  and  _83
REMARK   34  A    between atoms: _82  and  _85
REMARK   35  A    between atoms: _85  and  _86
REMARK   36  A    between atoms: _86  and  _87
REMARK   37  A    between atoms: _87  and  _88
REMARK   38  A    between atoms: _88  and  _89
REMARK   39  A    between atoms: _94  and  _95
REMARK   40  A    between atoms: _100  and  _102
REMARK   41  A    between atoms: _102  and  _103
REMARK   42  A    between atoms: _102  and  _105
REMARK   43  A    between atoms: _105  and  _106
REMARK   44  A    between atoms: _109  and  _111
REMARK   45  A    between atoms: _111  and  _112
REMARK   46  A    between atoms: _114  and  _116
REMARK   47  A    between atoms: _116  and  _117
REMARK   48  A    between atoms: _116  and  _119
REMARK   49  A    between atoms: _119  and  _120
REMARK   50  A    between atoms: _120  and  _121
REMARK   51  A    between atoms: _127  and  _128
REMARK   52  A    between atoms: _133  and  _135
REMARK   53  A    between atoms: _135  and  _136
REMARK   54  A    between atoms: _135  and  _138
REMARK   55  A    between atoms: _138  and  _139
REMARK   56  A    between atoms: _142  and  _144
REMARK   57  A    between atoms: _144  and  _145
REMARK   58  A    between atoms: _144  and  _147
REMARK   59  A    between atoms: _147  and  _148
REMARK   60  A    between atoms: _154  and  _156
REMARK   61  A    between atoms: _156  and  _157
REMARK   62  A    between atoms: _156  and  _159
REMARK   63  A    between atoms: _159  and  _160
REMARK   64  A    between atoms: _163  and  _165
REMARK   65  A    between atoms: _165  and  _166
REMARK   66  A    between atoms: _165  and  _168
REMARK   67  A    between atoms: _168  and  _169
REMARK   68  A    between atoms: _174  and  _176
REMARK   69  A    between atoms: _176  and  _177
REMARK   70  A    between atoms: _180  and  _182
REMARK   71  A    between atoms: _182  and  _183
REMARK   72  A    between atoms: _182  and  _185
REMARK   73  A    between atoms: _185  and  _186
REMARK   74  A    between atoms: _186  and  _187
REMARK   75  A    between atoms: _190  and  _192
REMARK   76  A    between atoms: _192  and  _193
REMARK   77  A    between atoms: _192  and  _195
REMARK   78  A    between atoms: _195  and  _196
REMARK   79  A    between atoms: _196  and  _197
REMARK   80  A    between atoms: _197  and  _198
REMARK   81  A    between atoms: _207  and  _209
REMARK   82  A    between atoms: _209  and  _210
REMARK   83  A    between atoms: _209  and  _212
REMARK   84  A    between atoms: _212  and  _213
REMARK   85  A    between atoms: _216  and  _218
REMARK   86  A    between atoms: _227  and  _230
REMARK   87  A    between atoms: _230  and  _231
REMARK   88  A    between atoms: _236  and  _237
REMARK   89  A    between atoms: _243  and  _245
REMARK   90  A    between atoms: _245  and  _246
REMARK   91  A    between atoms: _245  and  _248
REMARK   92  A    between atoms: _248  and  _249
REMARK   93  A    between atoms: _254  and  _256
REMARK   94  A    between atoms: _256  and  _257
REMARK   95  A    between atoms: _256  and  _259
REMARK   96  A    between atoms: _259  and  _260
REMARK   97  A    between atoms: _265  and  _266
REMARK   98  A    between atoms: _268  and  _270
REMARK   99  A    between atoms: _270  and  _271
REMARK  100  A    between atoms: _270  and  _273
REMARK  101  A    between atoms: _273  and  _274
REMARK  102  A    between atoms: _274  and  _275
REMARK  103  A    between atoms: _275  and  _276
REMARK  104  A    between atoms: _285  and  _287
REMARK  105  A    between atoms: _287  and  _288
REMARK  106  A    between atoms: _287  and  _290
REMARK  107  A    between atoms: _290  and  _291
REMARK  108  A    between atoms: _291  and  _292
REMARK  109  A    between atoms: _295  and  _297
REMARK  110  A    between atoms: _297  and  _298
REMARK  111  A    between atoms: _297  and  _300
REMARK  112  A    between atoms: _300  and  _301
REMARK  113  A    between atoms: _307  and  _309
REMARK  114  A    between atoms: _309  and  _310
REMARK  115  A    between atoms: _309  and  _312
REMARK  116  A    between atoms: _312  and  _313
REMARK  117  A    between atoms: _313  and  _314
REMARK  118  A    between atoms: _316  and  _318
REMARK  119  A    between atoms: _318  and  _319
REMARK  120  A    between atoms: _318  and  _321
REMARK  121  A    between atoms: _321  and  _322
REMARK  122  A    between atoms: _327  and  _329
REMARK  123  A    between atoms: _329  and  _330
REMARK  124  A    between atoms: _329  and  _332
REMARK  125  A    between atoms: _332  and  _333
REMARK  126  A    between atoms: _336  and  _338
REMARK  127  A    between atoms: _338  and  _339
REMARK  128  A    between atoms: _338  and  _341
REMARK  129  A    between atoms: _341  and  _342
REMARK  130  A    between atoms: _342  and  _343
REMARK  131  A    between atoms: _348  and  _350
REMARK  132  A    between atoms: _350  and  _351
REMARK  133  A    between atoms: _350  and  _353
REMARK  134  A    between atoms: _353  and  _354
REMARK  135  A    between atoms: _354  and  _355
REMARK  136  A    between atoms: _355  and  _356
REMARK  137  A    between atoms: _365  and  _367
REMARK  138  A    between atoms: _367  and  _368
REMARK  139  A    between atoms: _367  and  _370
REMARK  140  A    between atoms: _370  and  _371
REMARK  141  A    between atoms: _374  and  _376
REMARK  142  A    between atoms: _376  and  _377
REMARK  143  A    between atoms: _376  and  _379
REMARK  144  A    between atoms: _379  and  _380
REMARK  145  A    between atoms: _380  and  _381
REMARK  146  A    between atoms: _381  and  _382
REMARK                            x       y       z     vdW  Elec       q    Type
REMARK                         _______ _______ _______ _____ _____    ______ ____
ROOT
ATOM      1  CA  ARG A   2      -3.223   8.275  12.076  0.00  0.00    +0.137 C 
ENDROOT
BRANCH   1   3
ATOM      2  C   ASP A   1      -3.911   8.496   9.736  0.00  0.00    +0.239 C 
ATOM      3  N   ARG A   2      -4.083   8.819  11.017  0.00  0.00    -0.298 N 
ATOM      4  H   ARG A   2      -4.848   9.475  11.274  0.00  0.00    +0.150 HD
ATOM      5  O   ASP A   1      -3.055   7.701   9.356  0.00  0.00    -0.274 OA
BRANCH   2   6
ATOM      6  CA  ASP A   1      -4.859   9.138   8.729  0.00  0.00    +0.156 C 
BRANCH   6   7
ATOM      7  N   ASP A   1      -6.053   9.638   9.386  0.00  0.00    -0.238 NA
ATOM      8  H   ASP A   1      -6.213  10.663   9.461  0.00  0.00    +0.142 HD
ENDBRANCH   6   7
BRANCH   6   9
ATOM      9  CB  ASP A   1      -4.146  10.265   7.962  0.00  0.00    +0.140 C 
BRANCH   9  10
ATOM     10  CG  ASP A   1      -3.928  11.518   8.801  0.00  0.00    +0.367 C 
ATOM     11  OD2 ASP A   1      -4.173  11.498  10.026  0.00  0.00    -0.246 OA
ATOM     12  OD1 ASP A   1      -3.500  12.536   8.222  0.00  0.00    -0.246 OA
ENDBRANCH   9  10
ENDBRANCH   6   9
ENDBRANCH   2   6
ENDBRANCH   1   3
BRANCH   1  13
ATOM     13  C   ARG A   2      -3.947   7.417  13.112  0.00  0.00    +0.227 C 
ATOM     14  O   ARG A   2      -3.301   6.787  13.955  0.00  0.00    -0.286 OA
ENDBRANCH   1  13
BRANCH   1  15
ATOM     15  CB  ARG A   2      -2.526   9.412  12.831  0.00  0.00    +0.031 C 
BRANCH  15  16
ATOM     16  CG  ARG A   2      -1.582  10.282  12.005  0.00  0.00    +0.045 C 
BRANCH  16  17
ATOM     17  CD  ARG A   2      -1.023  11.410  12.869  0.00  0.00    +0.174 C 
BRANCH  17  18
ATOM     18  NE  ARG A   2      -0.182  10.892  13.948  0.00  0.00    -0.265 N 
ATOM     19  CZ  ARG A   2       0.211  11.597  15.006  0.00  0.00    +0.342 C 
ATOM     20  NH2 ARG A   2       0.958  11.028  15.945  0.00  0.00    -0.292 N 
ATOM     21 HH21 ARG A   2       1.264  11.580  16.771  0.00  0.00    +0.255 HD
ATOM     22 HH22 ARG A   2       1.237  10.030  15.854  0.00  0.00    +0.255 HD
ATOM     23  NH1 ARG A   2      -0.160  12.866  15.137  0.00  0.00    -0.292 N 
ATOM     24 HH11 ARG A   2       0.148  13.415  15.965  0.00  0.00    +0.255 HD
ATOM     25 HH12 ARG A   2      -0.759  13.310  14.412  0.00  0.00    +0.255 HD
ATOM     26  HE  ARG A   2       0.131   9.902  13.884  0.00  0.00    +0.259 HD
ENDBRANCH  17  18
ENDBRANCH  16  17
ENDBRANCH  15  16
ENDBRANCH   1  15
TORSDOF 10
REMARK  Name = ../refined-set-2016/2qx0/2qx0_pocket.pdb
REMARK  146 active torsions:
REMARK  status: ('A' for Active; 'I' for Inactive)
REMARK    1  A    between atoms: _1  and  _3
REMARK    2  A    between atoms: _3  and  _4
REMARK    3  A    between atoms: _7  and  _9
REMARK    4  A    between atoms: _9  and  _10
REMARK    5  A    between atoms: _9  and  _12
REMARK    6  A    between atoms: _12  and  _13
REMARK    7  A    between atoms: _16  and  _18
REMARK    8  A    between atoms: _18  and  _19
REMARK    9  A    between atoms: _21  and  _23
REMARK   10  A    between atoms: _23  and  _24
REMARK   11  A    between atoms: _23  and  _26
REMARK   12  A    between atoms: _26  and  _27
REMARK   13  A    between atoms: _29  and  _31
REMARK   14  A    between atoms: _31  and  _32
REMARK   15  A    between atoms: _31  and  _34
REMARK   16  A    between atoms: _34  and  _35
REMARK   17  A    between atoms: _40  and  _42
REMARK   18  A    between atoms: _42  and  _43
REMARK   19  A    between atoms: _42  and  _45
REMARK   20  A    between atoms: _45  and  _46
REMARK   21  A    between atoms: _51  and  _52
REMARK   22  A    between atoms: _54  and  _56
REMARK   23  A    between atoms: _56  and  _57
REMARK   24  A    between atoms: _56  and  _59
REMARK   25  A    between atoms: _59  and  _60
REMARK   26  A    between atoms: _60  and  _61
REMARK   27  A    between atoms: _61  and  _62
REMARK   28  A    between atoms: _71  and  _73
REMARK   29  A    between atoms: _73  and  _74
REMARK   30  A    between atoms: _73  and  _76
REMARK   31  A    between atoms: _76  and  _77
REMARK   32  A    between atoms: _80  and  _82
REMARK   33  A    between atoms: _82  and  _83
REMARK   34  A    between atoms: _82  and  _85
REMARK   35  A    between atoms: _85  and  _86
REMARK   36  A    between atoms: _86  and  _87
REMARK   37  A    between atoms: _87  and  _88
REMARK   38  A    between atoms: _88  and  _89
REMARK   39  A    between atoms: _94  and  _95
REMARK   40  A    between atoms: _100  and  _102
REMARK   41  A    between atoms: _102  and  _103
REMARK   42  A    between atoms: _102  and  _105
REMARK   43  A    between atoms: _105  and  _106
REMARK   44  A    between atoms: _109  and  _111
REMARK   45  A    between atoms: _111  and  _112
REMARK   46  A    between atoms: _114  and  _116
REMARK   47  A    between atoms: _116  and  _117
REMARK   48  A    between atoms: _116  and  _119
REMARK   49  A    between atoms: _119  and  _120
REMARK   50  A    between atoms: _120  and  _121
REMARK   51  A    between atoms: _127  and  _128
REMARK   52  A    between atoms: _133  and  _135
REMARK   53  A    between atoms: _135  and  _136
REMARK   54  A    between atoms: _135  and  _138
REMARK   55  A    between atoms: _138  and  _139
REMARK   56  A    between atoms: _142  and  _144
REMARK   57  A    between atoms: _144  and  _145
REMARK   58  A    between atoms: _144  and  _147
REMARK   59  A    between atoms: _147  and  _148
REMARK   60  A    between atoms: _154  and  _156
REMARK   61  A    between atoms: _156  and  _157
REMARK   62  A    between atoms: _156  and  _159
REMARK   63  A    between atoms: _159  and  _160
REMARK   64  A    between atoms: _163  and  _165
REMARK   65  A    between atoms: _165  and  _166
REMARK   66  A    between atoms: _165  and  _168
REMARK   67  A    between atoms: _168  and  _169
REMARK   68  A    between atoms: _174  and  _176
REMARK   69  A    between atoms: _176  and  _177
REMARK   70  A    between atoms: _180  and  _182
REMARK   71  A    between atoms: _182  and  _183
REMARK   72  A    between atoms: _182  and  _185
REMARK   73  A    between atoms: _185  and  _186
REMARK   74  A    between atoms: _186  and  _187
REMARK   75  A    between atoms: _190  and  _192
REMARK   76  A    between atoms: _192  and  _193
REMARK   77  A    between atoms: _192  and  _195
REMARK   78  A    between atoms: _195  and  _196
REMARK   79  A    between atoms: _196  and  _197
REMARK   80  A    between atoms: _197  and  _198
REMARK   81  A    between atoms: _207  and  _209
REMARK   82  A    between atoms: _209  and  _210
REMARK   83  A    between atoms: _209  and  _212
REMARK   84  A    between atoms: _212  and  _213
REMARK   85  A    between atoms: _216  and  _218
REMARK   86  A    between atoms: _227  and  _230
REMARK   87  A    between atoms: _230  and  _231
REMARK   88  A    between atoms: _236  and  _237
REMARK   89  A    between atoms: _243  and  _245
REMARK   90  A    between atoms: _245  and  _246
REMARK   91  A    between atoms: _245  and  _248
REMARK   92  A    between atoms: _248  and  _249
REMARK   93  A    between atoms: _254  and  _256
REMARK   94  A    between atoms: _256  and  _257
REMARK   95  A    between atoms: _256  and  _259
REMARK   96  A    between atoms: _259  and  _260
REMARK   97  A    between atoms: _265  and  _266
REMARK   98  A    between atoms: _268  and  _270
REMARK   99  A    between atoms: _270  and  _271
REMARK  100  A    between atoms: _270  and  _273
REMARK  101  A    between atoms: _273  and  _274
REMARK  102  A    between atoms: _274  and  _275
REMARK  103  A    between atoms: _275  and  _276
REMARK  104  A    between atoms: _285  and  _287
REMARK  105  A    between atoms: _287  and  _288
REMARK  106  A    between atoms: _287  and  _290
REMARK  107  A    between atoms: _290  and  _291
REMARK  108  A    between atoms: _291  and  _292
REMARK  109  A    between atoms: _295  and  _297
REMARK  110  A    between atoms: _297  and  _298
REMARK  111  A    between atoms: _297  and  _300
REMARK  112  A    between atoms: _300  and  _301
REMARK  113  A    between atoms: _307  and  _309
REMARK  114  A    between atoms: _309  and  _310
REMARK  115  A    between atoms: _309  and  _312
REMARK  116  A    between atoms: _312  and  _313
REMARK  117  A    between atoms: _313  and  _314
REMARK  118  A    between atoms: _316  and  _318
REMARK  119  A    between atoms: _318  and  _319
REMARK  120  A    between atoms: _318  and  _321
REMARK  121  A    between atoms: _321  and  _322
REMARK  122  A    between atoms: _327  and  _329
REMARK  123  A    between atoms: _329  and  _330
REMARK  124  A    between atoms: _329  and  _332
REMARK  125  A    between atoms: _332  and  _333
REMARK  126  A    between atoms: _336  and  _338
REMARK  127  A    between atoms: _338  and  _339
REMARK  128  A    between atoms: _338  and  _341
REMARK  129  A    between atoms: _341  and  _342
REMARK  130  A    between atoms: _342  and  _343
REMARK  131  A    between atoms: _348  and  _350
REMARK  132  A    between atoms: _350  and  _351
REMARK  133  A    between atoms: _350  and  _353
REMARK  134  A    between atoms: _353  and  _354
REMARK  135  A    between atoms: _354  and  _355
REMARK  136  A    between atoms: _355  and  _356
REMARK  137  A    between atoms: _365  and  _367
REMARK  138  A    between atoms: _367  and  _368
REMARK  139  A    between atoms: _367  and  _370
REMARK  140  A    between atoms: _370  and  _371
REMARK  141  A    between atoms: _374  and  _376
REMARK  142  A    between atoms: _376  and  _377
REMARK  143  A    between atoms: _376  and  _379
REMARK  144  A    between atoms: _379  and  _380
REMARK  145  A    between atoms: _380  and  _381
REMARK  146  A    between atoms: _381  and  _382
REMARK                            x       y       z     vdW  Elec       q    Type
REMARK                         _______ _______ _______ _____ _____    ______ ____
ROOT
ATOM      1  O   HOH     1       3.359  -3.709   7.731  0.00  0.00    +0.000 OA
ENDROOT
TORSDOF 0
REMARK  Name = ../refined-set-2016/2qx0/2qx0_pocket.pdb
REMARK  146 active torsions:
REMARK  status: ('A' for Active; 'I' for Inactive)
REMARK    1  A    between atoms: _1  and  _3
REMARK    2  A    between atoms: _3  and  _4
REMARK    3  A    between atoms: _7  and  _9
REMARK    4  A    between atoms: _9  and  _10
REMARK    5  A    between atoms: _9  and  _12
REMARK    6  A    between atoms: _12  and  _13
REMARK    7  A    between atoms: _16  and  _18
REMARK    8  A    between atoms: _18  and  _19
REMARK    9  A    between atoms: _21  and  _23
REMARK   10  A    between atoms: _23  and  _24
REMARK   11  A    between atoms: _23  and  _26
REMARK   12  A    between atoms: _26  and  _27
REMARK   13  A    between atoms: _29  and  _31
REMARK   14  A    between atoms: _31  and  _32
REMARK   15  A    between atoms: _31  and  _34
REMARK   16  A    between atoms: _34  and  _35
REMARK   17  A    between atoms: _40  and  _42
REMARK   18  A    between atoms: _42  and  _43
REMARK   19  A    between atoms: _42  and  _45
REMARK   20  A    between atoms: _45  and  _46
REMARK   21  A    between atoms: _51  and  _52
REMARK   22  A    between atoms: _54  and  _56
REMARK   23  A    between atoms: _56  and  _57
REMARK   24  A    between atoms: _56  and  _59
REMARK   25  A    between atoms: _59  and  _60
REMARK   26  A    between atoms: _60  and  _61
REMARK   27  A    between atoms: _61  and  _62
REMARK   28  A    between atoms: _71  and  _73
REMARK   29  A    between atoms: _73  and  _74
REMARK   30  A    between atoms: _73  and  _76
REMARK   31  A    between atoms: _76  and  _77
REMARK   32  A    between atoms: _80  and  _82
REMARK   33  A    between atoms: _82  and  _83
REMARK   34  A    between atoms: _82  and  _85
REMARK   35  A    between atoms: _85  and  _86
REMARK   36  A    between atoms: _86  and  _87
REMARK   37  A    between atoms: _87  and  _88
REMARK   38  A    between atoms: _88  and  _89
REMARK   39  A    between atoms: _94  and  _95
REMARK   40  A    between atoms: _100  and  _102
REMARK   41  A    between atoms: _102  and  _103
REMARK   42  A    between atoms: _102  and  _105
REMARK   43  A    between atoms: _105  and  _106
REMARK   44  A    between atoms: _109  and  _111
REMARK   45  A    between atoms: _111  and  _112
REMARK   46  A    between atoms: _114  and  _116
REMARK   47  A    between atoms: _116  and  _117
REMARK   48  A    between atoms: _116  and  _119
REMARK   49  A    between atoms: _119  and  _120
REMARK   50  A    between atoms: _120  and  _121
REMARK   51  A    between atoms: _127  and  _128
REMARK   52  A    between atoms: _133  and  _135
REMARK   53  A    between atoms: _135  and  _136
REMARK   54  A    between atoms: _135  and  _138
REMARK   55  A    between atoms: _138  and  _139
REMARK   56  A    between atoms: _142  and  _144
REMARK   57  A    between atoms: _144  and  _145
REMARK   58  A    between atoms: _144  and  _147
REMARK   59  A    between atoms: _147  and  _148
REMARK   60  A    between atoms: _154  and  _156
REMARK   61  A    between atoms: _156  and  _157
REMARK   62  A    between atoms: _156  and  _159
REMARK   63  A    between atoms: _159  and  _160
REMARK   64  A    between atoms: _163  and  _165
REMARK   65  A    between atoms: _165  and  _166
REMARK   66  A    between atoms: _165  and  _168
REMARK   67  A    between atoms: _168  and  _169
REMARK   68  A    between atoms: _174  and  _176
REMARK   69  A    between atoms: _176  and  _177
REMARK   70  A    between atoms: _180  and  _182
REMARK   71  A    between atoms: _182  and  _183
REMARK   72  A    between atoms: _182  and  _185
REMARK   73  A    between atoms: _185  and  _186
REMARK   74  A    between atoms: _186  and  _187
REMARK   75  A    between atoms: _190  and  _192
REMARK   76  A    between atoms: _192  and  _193
REMARK   77  A    between atoms: _192  and  _195
REMARK   78  A    between atoms: _195  and  _196
REMARK   79  A    between atoms: _196  and  _197
REMARK   80  A    between atoms: _197  and  _198
REMARK   81  A    between atoms: _207  and  _209
REMARK   82  A    between atoms: _209  and  _210
REMARK   83  A    between atoms: _209  and  _212
REMARK   84  A    between atoms: _212  and  _213
REMARK   85  A    between atoms: _216  and  _218
REMARK   86  A    between atoms: _227  and  _230
REMARK   87  A    between atoms: _230  and  _231
REMARK   88  A    between atoms: _236  and  _237
REMARK   89  A    between atoms: _243  and  _245
REMARK   90  A    between atoms: _245  and  _246
REMARK   91  A    between atoms: _245  and  _248
REMARK   92  A    between atoms: _248  and  _249
REMARK   93  A    between atoms: _254  and  _256
REMARK   94  A    between atoms: _256  and  _257
REMARK   95  A    between atoms: _256  and  _259
REMARK   96  A    between atoms: _259  and  _260
REMARK   97  A    between atoms: _265  and  _266
REMARK   98  A    between atoms: _268  and  _270
REMARK   99  A    between atoms: _270  and  _271
REMARK  100  A    between atoms: _270  and  _273
REMARK  101  A    between atoms: _273  and  _274
REMARK  102  A    between atoms: _274  and  _275
REMARK  103  A    between atoms: _275  and  _276
REMARK  104  A    between atoms: _285  and  _287
REMARK  105  A    between atoms: _287  and  _288
REMARK  106  A    between atoms: _287  and  _290
REMARK  107  A    between atoms: _290  and  _291
REMARK  108  A    between atoms: _291  and  _292
REMARK  109  A    between atoms: _295  and  _297
REMARK  110  A    between atoms: _297  and  _298
REMARK  111  A    between atoms: _297  and  _300
REMARK  112  A    between atoms: _300  and  _301
REMARK  113  A    between atoms: _307  and  _309
REMARK  114  A    between atoms: _309  and  _310
REMARK  115  A    between atoms: _309  and  _312
REMARK  116  A    between atoms: _312  and  _313
REMARK  117  A    between atoms: _313  and  _314
REMARK  118  A    between atoms: _316  and  _318
REMARK  119  A    between atoms: _318  and  _319
REMARK  120  A    between atoms: _318  and  _321
REMARK  121  A    between atoms: _321  and  _322
REMARK  122  A    between atoms: _327  and  _329
REMARK  123  A    between atoms: _329  and  _330
REMARK  124  A    between atoms: _329  and  _332
REMARK  125  A    between atoms: _332  and  _333
REMARK  126  A    between atoms: _336  and  _338
REMARK  127  A    between atoms: _338  and  _339
REMARK  128  A    between atoms: _338  and  _341
REMARK  129  A    between atoms: _341  and  _342
REMARK  130  A    between atoms: _342  and  _343
REMARK  131  A    between atoms: _348  and  _350
REMARK  132  A    between atoms: _350  and  _351
REMARK  133  A    between atoms: _350  and  _353
REMARK  134  A    between atoms: _353  and  _354
REMARK  135  A    between atoms: _354  and  _355
REMARK  136  A    between atoms: _355  and  _356
REMARK  137  A    between atoms: _365  and  _367
REMARK  138  A    between atoms: _367  and  _368
REMARK  139  A    between atoms: _367  and  _370
REMARK  140  A    between atoms: _370  and  _371
REMARK  141  A    between atoms: _374  and  _376
REMARK  142  A    between atoms: _376  and  _377
REMARK  143  A    between atoms: _376  and  _379
REMARK  144  A    between atoms: _379  and  _380
REMARK  145  A    between atoms: _380  and  _381
REMARK  146  A    between atoms: _381  and  _382
REMARK                            x       y       z     vdW  Elec       q    Type
REMARK                         _______ _______ _______ _____ _____    ______ ____
ROOT
ATOM      1  O   HOH     1       1.782   3.460   6.042  0.00  0.00    +0.000 OA
ENDROOT
TORSDOF 0
REMARK  Name = ../refined-set-2016/2qx0/2qx0_pocket.pdb
REMARK  146 active torsions:
REMARK  status: ('A' for Active; 'I' for Inactive)
REMARK    1  A    between atoms: _1  and  _3
REMARK    2  A    between atoms: _3  and  _4
REMARK    3  A    between atoms: _7  and  _9
REMARK    4  A    between atoms: _9  and  _10
REMARK    5  A    between atoms: _9  and  _12
REMARK    6  A    between atoms: _12  and  _13
REMARK    7  A    between atoms: _16  and  _18
REMARK    8  A    between atoms: _18  and  _19
REMARK    9  A    between atoms: _21  and  _23
REMARK   10  A    between atoms: _23  and  _24
REMARK   11  A    between atoms: _23  and  _26
REMARK   12  A    between atoms: _26  and  _27
REMARK   13  A    between atoms: _29  and  _31
REMARK   14  A    between atoms: _31  and  _32
REMARK   15  A    between atoms: _31  and  _34
REMARK   16  A    between atoms: _34  and  _35
REMARK   17  A    between atoms: _40  and  _42
REMARK   18  A    between atoms: _42  and  _43
REMARK   19  A    between atoms: _42  and  _45
REMARK   20  A    between atoms: _45  and  _46
REMARK   21  A    between atoms: _51  and  _52
REMARK   22  A    between atoms: _54  and  _56
REMARK   23  A    between atoms: _56  and  _57
REMARK   24  A    between atoms: _56  and  _59
REMARK   25  A    between atoms: _59  and  _60
REMARK   26  A    between atoms: _60  and  _61
REMARK   27  A    between atoms: _61  and  _62
REMARK   28  A    between atoms: _71  and  _73
REMARK   29  A    between atoms: _73  and  _74
REMARK   30  A    between atoms: _73  and  _76
REMARK   31  A    between atoms: _76  and  _77
REMARK   32  A    between atoms: _80  and  _82
REMARK   33  A    between atoms: _82  and  _83
REMARK   34  A    between atoms: _82  and  _85
REMARK   35  A    between atoms: _85  and  _86
REMARK   36  A    between atoms: _86  and  _87
REMARK   37  A    between atoms: _87  and  _88
REMARK   38  A    between atoms: _88  and  _89
REMARK   39  A    between atoms: _94  and  _95
REMARK   40  A    between atoms: _100  and  _102
REMARK   41  A    between atoms: _102  and  _103
REMARK   42  A    between atoms: _102  and  _105
REMARK   43  A    between atoms: _105  and  _106
REMARK   44  A    between atoms: _109  and  _111
REMARK   45  A    between atoms: _111  and  _112
REMARK   46  A    between atoms: _114  and  _116
REMARK   47  A    between atoms: _116  and  _117
REMARK   48  A    between atoms: _116  and  _119
REMARK   49  A    between atoms: _119  and  _120
REMARK   50  A    between atoms: _120  and  _121
REMARK   51  A    between atoms: _127  and  _128
REMARK   52  A    between atoms: _133  and  _135
REMARK   53  A    between atoms: _135  and  _136
REMARK   54  A    between atoms: _135  and  _138
REMARK   55  A    between atoms: _138  and  _139
REMARK   56  A    between atoms: _142  and  _144
REMARK   57  A    between atoms: _144  and  _145
REMARK   58  A    between atoms: _144  and  _147
REMARK   59  A    between atoms: _147  and  _148
REMARK   60  A    between atoms: _154  and  _156
REMARK   61  A    between atoms: _156  and  _157
REMARK   62  A    between atoms: _156  and  _159
REMARK   63  A    between atoms: _159  and  _160
REMARK   64  A    between atoms: _163  and  _165
REMARK   65  A    between atoms: _165  and  _166
REMARK   66  A    between atoms: _165  and  _168
REMARK   67  A    between atoms: _168  and  _169
REMARK   68  A    between atoms: _174  and  _176
REMARK   69  A    between atoms: _176  and  _177
REMARK   70  A    between atoms: _180  and  _182
REMARK   71  A    between atoms: _182  and  _183
REMARK   72  A    between atoms: _182  and  _185
REMARK   73  A    between atoms: _185  and  _186
REMARK   74  A    between atoms: _186  and  _187
REMARK   75  A    between atoms: _190  and  _192
REMARK   76  A    between atoms: _192  and  _193
REMARK   77  A    between atoms: _192  and  _195
REMARK   78  A    between atoms: _195  and  _196
REMARK   79  A    between atoms: _196  and  _197
REMARK   80  A    between atoms: _197  and  _198
REMARK   81  A    between atoms: _207  and  _209
REMARK   82  A    between atoms: _209  and  _210
REMARK   83  A    between atoms: _209  and  _212
REMARK   84  A    between atoms: _212  and  _213
REMARK   85  A    between atoms: _216  and  _218
REMARK   86  A    between atoms: _227  and  _230
REMARK   87  A    between atoms: _230  and  _231
REMARK   88  A    between atoms: _236  and  _237
REMARK   89  A    between atoms: _243  and  _245
REMARK   90  A    between atoms: _245  and  _246
REMARK   91  A    between atoms: _245  and  _248
REMARK   92  A    between atoms: _248  and  _249
REMARK   93  A    between atoms: _254  and  _256
REMARK   94  A    between atoms: _256  and  _257
REMARK   95  A    between atoms: _256  and  _259
REMARK   96  A    between atoms: _259  and  _260
REMARK   97  A    between atoms: _265  and  _266
REMARK   98  A    between atoms: _268  and  _270
REMARK   99  A    between atoms: _270  and  _271
REMARK  100  A    between atoms: _270  and  _273
REMARK  101  A    between atoms: _273  and  _274
REMARK  102  A    between atoms: _274  and  _275
REMARK  103  A    between atoms: _275  and  _276
REMARK  104  A    between atoms: _285  and  _287
REMARK  105  A    between atoms: _287  and  _288
REMARK  106  A    between atoms: _287  and  _290
REMARK  107  A    between atoms: _290  and  _291
REMARK  108  A    between atoms: _291  and  _292
REMARK  109  A    between atoms: _295  and  _297
REMARK  110  A    between atoms: _297  and  _298
REMARK  111  A    between atoms: _297  and  _300
REMARK  112  A    between atoms: _300  and  _301
REMARK  113  A    between atoms: _307  and  _309
REMARK  114  A    between atoms: _309  and  _310
REMARK  115  A    between atoms: _309  and  _312
REMARK  116  A    between atoms: _312  and  _313
REMARK  117  A    between atoms: _313  and  _314
REMARK  118  A    between atoms: _316  and  _318
REMARK  119  A    between atoms: _318  and  _319
REMARK  120  A    between atoms: _318  and  _321
REMARK  121  A    between atoms: _321  and  _322
REMARK  122  A    between atoms: _327  and  _329
REMARK  123  A    between atoms: _329  and  _330
REMARK  124  A    between atoms: _329  and  _332
REMARK  125  A    between atoms: _332  and  _333
REMARK  126  A    between atoms: _336  and  _338
REMARK  127  A    between atoms: _338  and  _339
REMARK  128  A    between atoms: _338  and  _341
REMARK  129  A    between atoms: _341  and  _342
REMARK  130  A    between atoms: _342  and  _343
REMARK  131  A    between atoms: _348  and  _350
REMARK  132  A    between atoms: _350  and  _351
REMARK  133  A    between atoms: _350  and  _353
REMARK  134  A    between atoms: _353  and  _354
REMARK  135  A    between atoms: _354  and  _355
REMARK  136  A    between atoms: _355  and  _356
REMARK  137  A    between atoms: _365  and  _367
REMARK  138  A    between atoms: _367  and  _368
REMARK  139  A    between atoms: _367  and  _370
REMARK  140  A    between atoms: _370  and  _371
REMARK  141  A    between atoms: _374  and  _376
REMARK  142  A    between atoms: _376  and  _377
REMARK  143  A    between atoms: _376  and  _379
REMARK  144  A    between atoms: _379  and  _380
REMARK  145  A    between atoms: _380  and  _381
REMARK  146  A    between atoms: _381  and  _382
REMARK                            x       y       z     vdW  Elec       q    Type
REMARK                         _______ _______ _______ _____ _____    ______ ____
ROOT
ATOM      1  O   HOH     1       1.001  -2.651   9.309  0.00  0.00    +0.000 OA
ENDROOT
TORSDOF 0
REMARK  Name = ../refined-set-2016/2qx0/2qx0_pocket.pdb
REMARK  146 active torsions:
REMARK  status: ('A' for Active; 'I' for Inactive)
REMARK    1  A    between atoms: _1  and  _3
REMARK    2  A    between atoms: _3  and  _4
REMARK    3  A    between atoms: _7  and  _9
REMARK    4  A    between atoms: _9  and  _10
REMARK    5  A    between atoms: _9  and  _12
REMARK    6  A    between atoms: _12  and  _13
REMARK    7  A    between atoms: _16  and  _18
REMARK    8  A    between atoms: _18  and  _19
REMARK    9  A    between atoms: _21  and  _23
REMARK   10  A    between atoms: _23  and  _24
REMARK   11  A    between atoms: _23  and  _26
REMARK   12  A    between atoms: _26  and  _27
REMARK   13  A    between atoms: _29  and  _31
REMARK   14  A    between atoms: _31  and  _32
REMARK   15  A    between atoms: _31  and  _34
REMARK   16  A    between atoms: _34  and  _35
REMARK   17  A    between atoms: _40  and  _42
REMARK   18  A    between atoms: _42  and  _43
REMARK   19  A    between atoms: _42  and  _45
REMARK   20  A    between atoms: _45  and  _46
REMARK   21  A    between atoms: _51  and  _52
REMARK   22  A    between atoms: _54  and  _56
REMARK   23  A    between atoms: _56  and  _57
REMARK   24  A    between atoms: _56  and  _59
REMARK   25  A    between atoms: _59  and  _60
REMARK   26  A    between atoms: _60  and  _61
REMARK   27  A    between atoms: _61  and  _62
REMARK   28  A    between atoms: _71  and  _73
REMARK   29  A    between atoms: _73  and  _74
REMARK   30  A    between atoms: _73  and  _76
REMARK   31  A    between atoms: _76  and  _77
REMARK   32  A    between atoms: _80  and  _82
REMARK   33  A    between atoms: _82  and  _83
REMARK   34  A    between atoms: _82  and  _85
REMARK   35  A    between atoms: _85  and  _86
REMARK   36  A    between atoms: _86  and  _87
REMARK   37  A    between atoms: _87  and  _88
REMARK   38  A    between atoms: _88  and  _89
REMARK   39  A    between atoms: _94  and  _95
REMARK   40  A    between atoms: _100  and  _102
REMARK   41  A    between atoms: _102  and  _103
REMARK   42  A    between atoms: _102  and  _105
REMARK   43  A    between atoms: _105  and  _106
REMARK   44  A    between atoms: _109  and  _111
REMARK   45  A    between atoms: _111  and  _112
REMARK   46  A    between atoms: _114  and  _116
REMARK   47  A    between atoms: _116  and  _117
REMARK   48  A    between atoms: _116  and  _119
REMARK   49  A    between atoms: _119  and  _120
REMARK   50  A    between atoms: _120  and  _121
REMARK   51  A    between atoms: _127  and  _128
REMARK   52  A    between atoms: _133  and  _135
REMARK   53  A    between atoms: _135  and  _136
REMARK   54  A    between atoms: _135  and  _138
REMARK   55  A    between atoms: _138  and  _139
REMARK   56  A    between atoms: _142  and  _144
REMARK   57  A    between atoms: _144  and  _145
REMARK   58  A    between atoms: _144  and  _147
REMARK   59  A    between atoms: _147  and  _148
REMARK   60  A    between atoms: _154  and  _156
REMARK   61  A    between atoms: _156  and  _157
REMARK   62  A    between atoms: _156  and  _159
REMARK   63  A    between atoms: _159  and  _160
REMARK   64  A    between atoms: _163  and  _165
REMARK   65  A    between atoms: _165  and  _166
REMARK   66  A    between atoms: _165  and  _168
REMARK   67  A    between atoms: _168  and  _169
REMARK   68  A    between atoms: _174  and  _176
REMARK   69  A    between atoms: _176  and  _177
REMARK   70  A    between atoms: _180  and  _182
REMARK   71  A    between atoms: _182  and  _183
REMARK   72  A    between atoms: _182  and  _185
REMARK   73  A    between atoms: _185  and  _186
REMARK   74  A    between atoms: _186  and  _187
REMARK   75  A    between atoms: _190  and  _192
REMARK   76  A    between atoms: _192  and  _193
REMARK   77  A    between atoms: _192  and  _195
REMARK   78  A    between atoms: _195  and  _196
REMARK   79  A    between atoms: _196  and  _197
REMARK   80  A    between atoms: _197  and  _198
REMARK   81  A    between atoms: _207  and  _209
REMARK   82  A    between atoms: _209  and  _210
REMARK   83  A    between atoms: _209  and  _212
REMARK   84  A    between atoms: _212  and  _213
REMARK   85  A    between atoms: _216  and  _218
REMARK   86  A    between atoms: _227  and  _230
REMARK   87  A    between atoms: _230  and  _231
REMARK   88  A    between atoms: _236  and  _237
REMARK   89  A    between atoms: _243  and  _245
REMARK   90  A    between atoms: _245  and  _246
REMARK   91  A    between atoms: _245  and  _248
REMARK   92  A    between atoms: _248  and  _249
REMARK   93  A    between atoms: _254  and  _256
REMARK   94  A    between atoms: _256  and  _257
REMARK   95  A    between atoms: _256  and  _259
REMARK   96  A    between atoms: _259  and  _260
REMARK   97  A    between atoms: _265  and  _266
REMARK   98  A    between atoms: _268  and  _270
REMARK   99  A    between atoms: _270  and  _271
REMARK  100  A    between atoms: _270  and  _273
REMARK  101  A    between atoms: _273  and  _274
REMARK  102  A    between atoms: _274  and  _275
REMARK  103  A    between atoms: _275  and  _276
REMARK  104  A    between atoms: _285  and  _287
REMARK  105  A    between atoms: _287  and  _288
REMARK  106  A    between atoms: _287  and  _290
REMARK  107  A    between atoms: _290  and  _291
REMARK  108  A    between atoms: _291  and  _292
REMARK  109  A    between atoms: _295  and  _297
REMARK  110  A    between atoms: _297  and  _298
REMARK  111  A    between atoms: _297  and  _300
REMARK  112  A    between atoms: _300  and  _301
REMARK  113  A    between atoms: _307  and  _309
REMARK  114  A    between atoms: _309  and  _310
REMARK  115  A    between atoms: _309  and  _312
REMARK  116  A    between atoms: _312  and  _313
REMARK  117  A    between atoms: _313  and  _314
REMARK  118  A    between atoms: _316  and  _318
REMARK  119  A    between atoms: _318  and  _319
REMARK  120  A    between atoms: _318  and  _321
REMARK  121  A    between atoms: _321  and  _322
REMARK  122  A    between atoms: _327  and  _329
REMARK  123  A    between atoms: _329  and  _330
REMARK  124  A    between atoms: _329  and  _332
REMARK  125  A    between atoms: _332  and  _333
REMARK  126  A    between atoms: _336  and  _338
REMARK  127  A    between atoms: _338  and  _339
REMARK  128  A    between atoms: _338  and  _341
REMARK  129  A    between atoms: _341  and  _342
REMARK  130  A    between atoms: _342  and  _343
REMARK  131  A    between atoms: _348  and  _350
REMARK  132  A    between atoms: _350  and  _351
REMARK  133  A    between atoms: _350  and  _353
REMARK  134  A    between atoms: _353  and  _354
REMARK  135  A    between atoms: _354  and  _355
REMARK  136  A    between atoms: _355  and  _356
REMARK  137  A    between atoms: _365  and  _367
REMARK  138  A    between atoms: _367  and  _368
REMARK  139  A    between atoms: _367  and  _370
REMARK  140  A    between atoms: _370  and  _371
REMARK  141  A    between atoms: _374  and  _376
REMARK  142  A    between atoms: _376  and  _377
REMARK  143  A    between atoms: _376  and  _379
REMARK  144  A    between atoms: _379  and  _380
REMARK  145  A    between atoms: _380  and  _381
REMARK  146  A    between atoms: _381  and  _382
REMARK                            x       y       z     vdW  Elec       q    Type
REMARK                         _______ _______ _______ _____ _____    ______ ____
ROOT
ATOM      1  O   HOH     1      -1.133  -1.430   9.828  0.00  0.00    +0.000 OA
ENDROOT
TORSDOF 0
REMARK  Name = ../refined-set-2016/2qx0/2qx0_pocket.pdb
REMARK  146 active torsions:
REMARK  status: ('A' for Active; 'I' for Inactive)
REMARK    1  A    between atoms: _1  and  _3
REMARK    2  A    between atoms: _3  and  _4
REMARK    3  A    between atoms: _7  and  _9
REMARK    4  A    between atoms: _9  and  _10
REMARK    5  A    between atoms: _9  and  _12
REMARK    6  A    between atoms: _12  and  _13
REMARK    7  A    between atoms: _16  and  _18
REMARK    8  A    between atoms: _18  and  _19
REMARK    9  A    between atoms: _21  and  _23
REMARK   10  A    between atoms: _23  and  _24
REMARK   11  A    between atoms: _23  and  _26
REMARK   12  A    between atoms: _26  and  _27
REMARK   13  A    between atoms: _29  and  _31
REMARK   14  A    between atoms: _31  and  _32
REMARK   15  A    between atoms: _31  and  _34
REMARK   16  A    between atoms: _34  and  _35
REMARK   17  A    between atoms: _40  and  _42
REMARK   18  A    between atoms: _42  and  _43
REMARK   19  A    between atoms: _42  and  _45
REMARK   20  A    between atoms: _45  and  _46
REMARK   21  A    between atoms: _51  and  _52
REMARK   22  A    between atoms: _54  and  _56
REMARK   23  A    between atoms: _56  and  _57
REMARK   24  A    between atoms: _56  and  _59
REMARK   25  A    between atoms: _59  and  _60
REMARK   26  A    between atoms: _60  and  _61
REMARK   27  A    between atoms: _61  and  _62
REMARK   28  A    between atoms: _71  and  _73
REMARK   29  A    between atoms: _73  and  _74
REMARK   30  A    between atoms: _73  and  _76
REMARK   31  A    between atoms: _76  and  _77
REMARK   32  A    between atoms: _80  and  _82
REMARK   33  A    between atoms: _82  and  _83
REMARK   34  A    between atoms: _82  and  _85
REMARK   35  A    between atoms: _85  and  _86
REMARK   36  A    between atoms: _86  and  _87
REMARK   37  A    between atoms: _87  and  _88
REMARK   38  A    between atoms: _88  and  _89
REMARK   39  A    between atoms: _94  and  _95
REMARK   40  A    between atoms: _100  and  _102
REMARK   41  A    between atoms: _102  and  _103
REMARK   42  A    between atoms: _102  and  _105
REMARK   43  A    between atoms: _105  and  _106
REMARK   44  A    between atoms: _109  and  _111
REMARK   45  A    between atoms: _111  and  _112
REMARK   46  A    between atoms: _114  and  _116
REMARK   47  A    between atoms: _116  and  _117
REMARK   48  A    between atoms: _116  and  _119
REMARK   49  A    between atoms: _119  and  _120
REMARK   50  A    between atoms: _120  and  _121
REMARK   51  A    between atoms: _127  and  _128
REMARK   52  A    between atoms: _133  and  _135
REMARK   53  A    between atoms: _135  and  _136
REMARK   54  A    between atoms: _135  and  _138
REMARK   55  A    between atoms: _138  and  _139
REMARK   56  A    between atoms: _142  and  _144
REMARK   57  A    between atoms: _144  and  _145
REMARK   58  A    between atoms: _144  and  _147
REMARK   59  A    between atoms: _147  and  _148
REMARK   60  A    between atoms: _154  and  _156
REMARK   61  A    between atoms: _156  and  _157
REMARK   62  A    between atoms: _156  and  _159
REMARK   63  A    between atoms: _159  and  _160
REMARK   64  A    between atoms: _163  and  _165
REMARK   65  A    between atoms: _165  and  _166
REMARK   66  A    between atoms: _165  and  _168
REMARK   67  A    between atoms: _168  and  _169
REMARK   68  A    between atoms: _174  and  _176
REMARK   69  A    between atoms: _176  and  _177
REMARK   70  A    between atoms: _180  and  _182
REMARK   71  A    between atoms: _182  and  _183
REMARK   72  A    between atoms: _182  and  _185
REMARK   73  A    between atoms: _185  and  _186
REMARK   74  A    between atoms: _186  and  _187
REMARK   75  A    between atoms: _190  and  _192
REMARK   76  A    between atoms: _192  and  _193
REMARK   77  A    between atoms: _192  and  _195
REMARK   78  A    between atoms: _195  and  _196
REMARK   79  A    between atoms: _196  and  _197
REMARK   80  A    between atoms: _197  and  _198
REMARK   81  A    between atoms: _207  and  _209
REMARK   82  A    between atoms: _209  and  _210
REMARK   83  A    between atoms: _209  and  _212
REMARK   84  A    between atoms: _212  and  _213
REMARK   85  A    between atoms: _216  and  _218
REMARK   86  A    between atoms: _227  and  _230
REMARK   87  A    between atoms: _230  and  _231
REMARK   88  A    between atoms: _236  and  _237
REMARK   89  A    between atoms: _243  and  _245
REMARK   90  A    between atoms: _245  and  _246
REMARK   91  A    between atoms: _245  and  _248
REMARK   92  A    between atoms: _248  and  _249
REMARK   93  A    between atoms: _254  and  _256
REMARK   94  A    between atoms: _256  and  _257
REMARK   95  A    between atoms: _256  and  _259
REMARK   96  A    between atoms: _259  and  _260
REMARK   97  A    between atoms: _265  and  _266
REMARK   98  A    between atoms: _268  and  _270
REMARK   99  A    between atoms: _270  and  _271
REMARK  100  A    between atoms: _270  and  _273
REMARK  101  A    between atoms: _273  and  _274
REMARK  102  A    between atoms: _274  and  _275
REMARK  103  A    between atoms: _275  and  _276
REMARK  104  A    between atoms: _285  and  _287
REMARK  105  A    between atoms: _287  and  _288
REMARK  106  A    between atoms: _287  and  _290
REMARK  107  A    between atoms: _290  and  _291
REMARK  108  A    between atoms: _291  and  _292
REMARK  109  A    between atoms: _295  and  _297
REMARK  110  A    between atoms: _297  and  _298
REMARK  111  A    between atoms: _297  and  _300
REMARK  112  A    between atoms: _300  and  _301
REMARK  113  A    between atoms: _307  and  _309
REMARK  114  A    between atoms: _309  and  _310
REMARK  115  A    between atoms: _309  and  _312
REMARK  116  A    between atoms: _312  and  _313
REMARK  117  A    between atoms: _313  and  _314
REMARK  118  A    between atoms: _316  and  _318
REMARK  119  A    between atoms: _318  and  _319
REMARK  120  A    between atoms: _318  and  _321
REMARK  121  A    between atoms: _321  and  _322
REMARK  122  A    between atoms: _327  and  _329
REMARK  123  A    between atoms: _329  and  _330
REMARK  124  A    between atoms: _329  and  _332
REMARK  125  A    between atoms: _332  and  _333
REMARK  126  A    between atoms: _336  and  _338
REMARK  127  A    between atoms: _338  and  _339
REMARK  128  A    between atoms: _338  and  _341
REMARK  129  A    between atoms: _341  and  _342
REMARK  130  A    between atoms: _342  and  _343
REMARK  131  A    between atoms: _348  and  _350
REMARK  132  A    between atoms: _350  and  _351
REMARK  133  A    between atoms: _350  and  _353
REMARK  134  A    between atoms: _353  and  _354
REMARK  135  A    between atoms: _354  and  _355
REMARK  136  A    between atoms: _355  and  _356
REMARK  137  A    between atoms: _365  and  _367
REMARK  138  A    between atoms: _367  and  _368
REMARK  139  A    between atoms: _367  and  _370
REMARK  140  A    between atoms: _370  and  _371
REMARK  141  A    between atoms: _374  and  _376
REMARK  142  A    between atoms: _376  and  _377
REMARK  143  A    between atoms: _376  and  _379
REMARK  144  A    between atoms: _379  and  _380
REMARK  145  A    between atoms: _380  and  _381
REMARK  146  A    between atoms: _381  and  _382
REMARK                            x       y       z     vdW  Elec       q    Type
REMARK                         _______ _______ _______ _____ _____    ______ ____
ROOT
ATOM      1  O   HOH     1       5.324   3.266   5.370  0.00  0.00    +0.000 OA
ENDROOT
TORSDOF 0
REMARK  Name = ../refined-set-2016/2qx0/2qx0_pocket.pdb
REMARK  146 active torsions:
REMARK  status: ('A' for Active; 'I' for Inactive)
REMARK    1  A    between atoms: _1  and  _3
REMARK    2  A    between atoms: _3  and  _4
REMARK    3  A    between atoms: _7  and  _9
REMARK    4  A    between atoms: _9  and  _10
REMARK    5  A    between atoms: _9  and  _12
REMARK    6  A    between atoms: _12  and  _13
REMARK    7  A    between atoms: _16  and  _18
REMARK    8  A    between atoms: _18  and  _19
REMARK    9  A    between atoms: _21  and  _23
REMARK   10  A    between atoms: _23  and  _24
REMARK   11  A    between atoms: _23  and  _26
REMARK   12  A    between atoms: _26  and  _27
REMARK   13  A    between atoms: _29  and  _31
REMARK   14  A    between atoms: _31  and  _32
REMARK   15  A    between atoms: _31  and  _34
REMARK   16  A    between atoms: _34  and  _35
REMARK   17  A    between atoms: _40  and  _42
REMARK   18  A    between atoms: _42  and  _43
REMARK   19  A    between atoms: _42  and  _45
REMARK   20  A    between atoms: _45  and  _46
REMARK   21  A    between atoms: _51  and  _52
REMARK   22  A    between atoms: _54  and  _56
REMARK   23  A    between atoms: _56  and  _57
REMARK   24  A    between atoms: _56  and  _59
REMARK   25  A    between atoms: _59  and  _60
REMARK   26  A    between atoms: _60  and  _61
REMARK   27  A    between atoms: _61  and  _62
REMARK   28  A    between atoms: _71  and  _73
REMARK   29  A    between atoms: _73  and  _74
REMARK   30  A    between atoms: _73  and  _76
REMARK   31  A    between atoms: _76  and  _77
REMARK   32  A    between atoms: _80  and  _82
REMARK   33  A    between atoms: _82  and  _83
REMARK   34  A    between atoms: _82  and  _85
REMARK   35  A    between atoms: _85  and  _86
REMARK   36  A    between atoms: _86  and  _87
REMARK   37  A    between atoms: _87  and  _88
REMARK   38  A    between atoms: _88  and  _89
REMARK   39  A    between atoms: _94  and  _95
REMARK   40  A    between atoms: _100  and  _102
REMARK   41  A    between atoms: _102  and  _103
REMARK   42  A    between atoms: _102  and  _105
REMARK   43  A    between atoms: _105  and  _106
REMARK   44  A    between atoms: _109  and  _111
REMARK   45  A    between atoms: _111  and  _112
REMARK   46  A    between atoms: _114  and  _116
REMARK   47  A    between atoms: _116  and  _117
REMARK   48  A    between atoms: _116  and  _119
REMARK   49  A    between atoms: _119  and  _120
REMARK   50  A    between atoms: _120  and  _121
REMARK   51  A    between atoms: _127  and  _128
REMARK   52  A    between atoms: _133  and  _135
REMARK   53  A    between atoms: _135  and  _136
REMARK   54  A    between atoms: _135  and  _138
REMARK   55  A    between atoms: _138  and  _139
REMARK   56  A    between atoms: _142  and  _144
REMARK   57  A    between atoms: _144  and  _145
REMARK   58  A    between atoms: _144  and  _147
REMARK   59  A    between atoms: _147  and  _148
REMARK   60  A    between atoms: _154  and  _156
REMARK   61  A    between atoms: _156  and  _157
REMARK   62  A    between atoms: _156  and  _159
REMARK   63  A    between atoms: _159  and  _160
REMARK   64  A    between atoms: _163  and  _165
REMARK   65  A    between atoms: _165  and  _166
REMARK   66  A    between atoms: _165  and  _168
REMARK   67  A    between atoms: _168  and  _169
REMARK   68  A    between atoms: _174  and  _176
REMARK   69  A    between atoms: _176  and  _177
REMARK   70  A    between atoms: _180  and  _182
REMARK   71  A    between atoms: _182  and  _183
REMARK   72  A    between atoms: _182  and  _185
REMARK   73  A    between atoms: _185  and  _186
REMARK   74  A    between atoms: _186  and  _187
REMARK   75  A    between atoms: _190  and  _192
REMARK   76  A    between atoms: _192  and  _193
REMARK   77  A    between atoms: _192  and  _195
REMARK   78  A    between atoms: _195  and  _196
REMARK   79  A    between atoms: _196  and  _197
REMARK   80  A    between atoms: _197  and  _198
REMARK   81  A    between atoms: _207  and  _209
REMARK   82  A    between atoms: _209  and  _210
REMARK   83  A    between atoms: _209  and  _212
REMARK   84  A    between atoms: _212  and  _213
REMARK   85  A    between atoms: _216  and  _218
REMARK   86  A    between atoms: _227  and  _230
REMARK   87  A    between atoms: _230  and  _231
REMARK   88  A    between atoms: _236  and  _237
REMARK   89  A    between atoms: _243  and  _245
REMARK   90  A    between atoms: _245  and  _246
REMARK   91  A    between atoms: _245  and  _248
REMARK   92  A    between atoms: _248  and  _249
REMARK   93  A    between atoms: _254  and  _256
REMARK   94  A    between atoms: _256  and  _257
REMARK   95  A    between atoms: _256  and  _259
REMARK   96  A    between atoms: _259  and  _260
REMARK   97  A    between atoms: _265  and  _266
REMARK   98  A    between atoms: _268  and  _270
REMARK   99  A    between atoms: _270  and  _271
REMARK  100  A    between atoms: _270  and  _273
REMARK  101  A    between atoms: _273  and  _274
REMARK  102  A    between atoms: _274  and  _275
REMARK  103  A    between atoms: _275  and  _276
REMARK  104  A    between atoms: _285  and  _287
REMARK  105  A    between atoms: _287  and  _288
REMARK  106  A    between atoms: _287  and  _290
REMARK  107  A    between atoms: _290  and  _291
REMARK  108  A    between atoms: _291  and  _292
REMARK  109  A    between atoms: _295  and  _297
REMARK  110  A    between atoms: _297  and  _298
REMARK  111  A    between atoms: _297  and  _300
REMARK  112  A    between atoms: _300  and  _301
REMARK  113  A    between atoms: _307  and  _309
REMARK  114  A    between atoms: _309  and  _310
REMARK  115  A    between atoms: _309  and  _312
REMARK  116  A    between atoms: _312  and  _313
REMARK  117  A    between atoms: _313  and  _314
REMARK  118  A    between atoms: _316  and  _318
REMARK  119  A    between atoms: _318  and  _319
REMARK  120  A    between atoms: _318  and  _321
REMARK  121  A    between atoms: _321  and  _322
REMARK  122  A    between atoms: _327  and  _329
REMARK  123  A    between atoms: _329  and  _330
REMARK  124  A    between atoms: _329  and  _332
REMARK  125  A    between atoms: _332  and  _333
REMARK  126  A    between atoms: _336  and  _338
REMARK  127  A    between atoms: _338  and  _339
REMARK  128  A    between atoms: _338  and  _341
REMARK  129  A    between atoms: _341  and  _342
REMARK  130  A    between atoms: _342  and  _343
REMARK  131  A    between atoms: _348  and  _350
REMARK  132  A    between atoms: _350  and  _351
REMARK  133  A    between atoms: _350  and  _353
REMARK  134  A    between atoms: _353  and  _354
REMARK  135  A    between atoms: _354  and  _355
REMARK  136  A    between atoms: _355  and  _356
REMARK  137  A    between atoms: _365  and  _367
REMARK  138  A    between atoms: _367  and  _368
REMARK  139  A    between atoms: _367  and  _370
REMARK  140  A    between atoms: _370  and  _371
REMARK  141  A    between atoms: _374  and  _376
REMARK  142  A    between atoms: _376  and  _377
REMARK  143  A    between atoms: _376  and  _379
REMARK  144  A    between atoms: _379  and  _380
REMARK  145  A    between atoms: _380  and  _381
REMARK  146  A    between atoms: _381  and  _382
REMARK                            x       y       z     vdW  Elec       q    Type
REMARK                         _______ _______ _______ _____ _____    ______ ____
ROOT
ATOM      1  O   HOH     1       2.011   3.808  -0.550  0.00  0.00    +0.000 OA
ENDROOT
TORSDOF 0
REMARK  Name = ../refined-set-2016/2qx0/2qx0_pocket.pdb
REMARK  146 active torsions:
REMARK  status: ('A' for Active; 'I' for Inactive)
REMARK    1  A    between atoms: _1  and  _3
REMARK    2  A    between atoms: _3  and  _4
REMARK    3  A    between atoms: _7  and  _9
REMARK    4  A    between atoms: _9  and  _10
REMARK    5  A    between atoms: _9  and  _12
REMARK    6  A    between atoms: _12  and  _13
REMARK    7  A    between atoms: _16  and  _18
REMARK    8  A    between atoms: _18  and  _19
REMARK    9  A    between atoms: _21  and  _23
REMARK   10  A    between atoms: _23  and  _24
REMARK   11  A    between atoms: _23  and  _26
REMARK   12  A    between atoms: _26  and  _27
REMARK   13  A    between atoms: _29  and  _31
REMARK   14  A    between atoms: _31  and  _32
REMARK   15  A    between atoms: _31  and  _34
REMARK   16  A    between atoms: _34  and  _35
REMARK   17  A    between atoms: _40  and  _42
REMARK   18  A    between atoms: _42  and  _43
REMARK   19  A    between atoms: _42  and  _45
REMARK   20  A    between atoms: _45  and  _46
REMARK   21  A    between atoms: _51  and  _52
REMARK   22  A    between atoms: _54  and  _56
REMARK   23  A    between atoms: _56  and  _57
REMARK   24  A    between atoms: _56  and  _59
REMARK   25  A    between atoms: _59  and  _60
REMARK   26  A    between atoms: _60  and  _61
REMARK   27  A    between atoms: _61  and  _62
REMARK   28  A    between atoms: _71  and  _73
REMARK   29  A    between atoms: _73  and  _74
REMARK   30  A    between atoms: _73  and  _76
REMARK   31  A    between atoms: _76  and  _77
REMARK   32  A    between atoms: _80  and  _82
REMARK   33  A    between atoms: _82  and  _83
REMARK   34  A    between atoms: _82  and  _85
REMARK   35  A    between atoms: _85  and  _86
REMARK   36  A    between atoms: _86  and  _87
REMARK   37  A    between atoms: _87  and  _88
REMARK   38  A    between atoms: _88  and  _89
REMARK   39  A    between atoms: _94  and  _95
REMARK   40  A    between atoms: _100  and  _102
REMARK   41  A    between atoms: _102  and  _103
REMARK   42  A    between atoms: _102  and  _105
REMARK   43  A    between atoms: _105  and  _106
REMARK   44  A    between atoms: _109  and  _111
REMARK   45  A    between atoms: _111  and  _112
REMARK   46  A    between atoms: _114  and  _116
REMARK   47  A    between atoms: _116  and  _117
REMARK   48  A    between atoms: _116  and  _119
REMARK   49  A    between atoms: _119  and  _120
REMARK   50  A    between atoms: _120  and  _121
REMARK   51  A    between atoms: _127  and  _128
REMARK   52  A    between atoms: _133  and  _135
REMARK   53  A    between atoms: _135  and  _136
REMARK   54  A    between atoms: _135  and  _138
REMARK   55  A    between atoms: _138  and  _139
REMARK   56  A    between atoms: _142  and  _144
REMARK   57  A    between atoms: _144  and  _145
REMARK   58  A    between atoms: _144  and  _147
REMARK   59  A    between atoms: _147  and  _148
REMARK   60  A    between atoms: _154  and  _156
REMARK   61  A    between atoms: _156  and  _157
REMARK   62  A    between atoms: _156  and  _159
REMARK   63  A    between atoms: _159  and  _160
REMARK   64  A    between atoms: _163  and  _165
REMARK   65  A    between atoms: _165  and  _166
REMARK   66  A    between atoms: _165  and  _168
REMARK   67  A    between atoms: _168  and  _169
REMARK   68  A    between atoms: _174  and  _176
REMARK   69  A    between atoms: _176  and  _177
REMARK   70  A    between atoms: _180  and  _182
REMARK   71  A    between atoms: _182  and  _183
REMARK   72  A    between atoms: _182  and  _185
REMARK   73  A    between atoms: _185  and  _186
REMARK   74  A    between atoms: _186  and  _187
REMARK   75  A    between atoms: _190  and  _192
REMARK   76  A    between atoms: _192  and  _193
REMARK   77  A    between atoms: _192  and  _195
REMARK   78  A    between atoms: _195  and  _196
REMARK   79  A    between atoms: _196  and  _197
REMARK   80  A    between atoms: _197  and  _198
REMARK   81  A    between atoms: _207  and  _209
REMARK   82  A    between atoms: _209  and  _210
REMARK   83  A    between atoms: _209  and  _212
REMARK   84  A    between atoms: _212  and  _213
REMARK   85  A    between atoms: _216  and  _218
REMARK   86  A    between atoms: _227  and  _230
REMARK   87  A    between atoms: _230  and  _231
REMARK   88  A    between atoms: _236  and  _237
REMARK   89  A    between atoms: _243  and  _245
REMARK   90  A    between atoms: _245  and  _246
REMARK   91  A    between atoms: _245  and  _248
REMARK   92  A    between atoms: _248  and  _249
REMARK   93  A    between atoms: _254  and  _256
REMARK   94  A    between atoms: _256  and  _257
REMARK   95  A    between atoms: _256  and  _259
REMARK   96  A    between atoms: _259  and  _260
REMARK   97  A    between atoms: _265  and  _266
REMARK   98  A    between atoms: _268  and  _270
REMARK   99  A    between atoms: _270  and  _271
REMARK  100  A    between atoms: _270  and  _273
REMARK  101  A    between atoms: _273  and  _274
REMARK  102  A    between atoms: _274  and  _275
REMARK  103  A    between atoms: _275  and  _276
REMARK  104  A    between atoms: _285  and  _287
REMARK  105  A    between atoms: _287  and  _288
REMARK  106  A    between atoms: _287  and  _290
REMARK  107  A    between atoms: _290  and  _291
REMARK  108  A    between atoms: _291  and  _292
REMARK  109  A    between atoms: _295  and  _297
REMARK  110  A    between atoms: _297  and  _298
REMARK  111  A    between atoms: _297  and  _300
REMARK  112  A    between atoms: _300  and  _301
REMARK  113  A    between atoms: _307  and  _309
REMARK  114  A    between atoms: _309  and  _310
REMARK  115  A    between atoms: _309  and  _312
REMARK  116  A    between atoms: _312  and  _313
REMARK  117  A    between atoms: _313  and  _314
REMARK  118  A    between atoms: _316  and  _318
REMARK  119  A    between atoms: _318  and  _319
REMARK  120  A    between atoms: _318  and  _321
REMARK  121  A    between atoms: _321  and  _322
REMARK  122  A    between atoms: _327  and  _329
REMARK  123  A    between atoms: _329  and  _330
REMARK  124  A    between atoms: _329  and  _332
REMARK  125  A    between atoms: _332  and  _333
REMARK  126  A    between atoms: _336  and  _338
REMARK  127  A    between atoms: _338  and  _339
REMARK  128  A    between atoms: _338  and  _341
REMARK  129  A    between atoms: _341  and  _342
REMARK  130  A    between atoms: _342  and  _343
REMARK  131  A    between atoms: _348  and  _350
REMARK  132  A    between atoms: _350  and  _351
REMARK  133  A    between atoms: _350  and  _353
REMARK  134  A    between atoms: _353  and  _354
REMARK  135  A    between atoms: _354  and  _355
REMARK  136  A    between atoms: _355  and  _356
REMARK  137  A    between atoms: _365  and  _367
REMARK  138  A    between atoms: _367  and  _368
REMARK  139  A    between atoms: _367  and  _370
REMARK  140  A    between atoms: _370  and  _371
REMARK  141  A    between atoms: _374  and  _376
REMARK  142  A    between atoms: _376  and  _377
REMARK  143  A    between atoms: _376  and  _379
REMARK  144  A    between atoms: _379  and  _380
REMARK  145  A    between atoms: _380  and  _381
REMARK  146  A    between atoms: _381  and  _382
REMARK                            x       y       z     vdW  Elec       q    Type
REMARK                         _______ _______ _______ _____ _____    ______ ____
ROOT
ATOM      1  O   HOH     1       1.235   5.714  11.631  0.00  0.00    +0.000 OA
ENDROOT
TORSDOF 0
REMARK  Name = ../refined-set-2016/2qx0/2qx0_pocket.pdb
REMARK  146 active torsions:
REMARK  status: ('A' for Active; 'I' for Inactive)
REMARK    1  A    between atoms: _1  and  _3
REMARK    2  A    between atoms: _3  and  _4
REMARK    3  A    between atoms: _7  and  _9
REMARK    4  A    between atoms: _9  and  _10
REMARK    5  A    between atoms: _9  and  _12
REMARK    6  A    between atoms: _12  and  _13
REMARK    7  A    between atoms: _16  and  _18
REMARK    8  A    between atoms: _18  and  _19
REMARK    9  A    between atoms: _21  and  _23
REMARK   10  A    between atoms: _23  and  _24
REMARK   11  A    between atoms: _23  and  _26
REMARK   12  A    between atoms: _26  and  _27
REMARK   13  A    between atoms: _29  and  _31
REMARK   14  A    between atoms: _31  and  _32
REMARK   15  A    between atoms: _31  and  _34
REMARK   16  A    between atoms: _34  and  _35
REMARK   17  A    between atoms: _40  and  _42
REMARK   18  A    between atoms: _42  and  _43
REMARK   19  A    between atoms: _42  and  _45
REMARK   20  A    between atoms: _45  and  _46
REMARK   21  A    between atoms: _51  and  _52
REMARK   22  A    between atoms: _54  and  _56
REMARK   23  A    between atoms: _56  and  _57
REMARK   24  A    between atoms: _56  and  _59
REMARK   25  A    between atoms: _59  and  _60
REMARK   26  A    between atoms: _60  and  _61
REMARK   27  A    between atoms: _61  and  _62
REMARK   28  A    between atoms: _71  and  _73
REMARK   29  A    between atoms: _73  and  _74
REMARK   30  A    between atoms: _73  and  _76
REMARK   31  A    between atoms: _76  and  _77
REMARK   32  A    between atoms: _80  and  _82
REMARK   33  A    between atoms: _82  and  _83
REMARK   34  A    between atoms: _82  and  _85
REMARK   35  A    between atoms: _85  and  _86
REMARK   36  A    between atoms: _86  and  _87
REMARK   37  A    between atoms: _87  and  _88
REMARK   38  A    between atoms: _88  and  _89
REMARK   39  A    between atoms: _94  and  _95
REMARK   40  A    between atoms: _100  and  _102
REMARK   41  A    between atoms: _102  and  _103
REMARK   42  A    between atoms: _102  and  _105
REMARK   43  A    between atoms: _105  and  _106
REMARK   44  A    between atoms: _109  and  _111
REMARK   45  A    between atoms: _111  and  _112
REMARK   46  A    between atoms: _114  and  _116
REMARK   47  A    between atoms: _116  and  _117
REMARK   48  A    between atoms: _116  and  _119
REMARK   49  A    between atoms: _119  and  _120
REMARK   50  A    between atoms: _120  and  _121
REMARK   51  A    between atoms: _127  and  _128
REMARK   52  A    between atoms: _133  and  _135
REMARK   53  A    between atoms: _135  and  _136
REMARK   54  A    between atoms: _135  and  _138
REMARK   55  A    between atoms: _138  and  _139
REMARK   56  A    between atoms: _142  and  _144
REMARK   57  A    between atoms: _144  and  _145
REMARK   58  A    between atoms: _144  and  _147
REMARK   59  A    between atoms: _147  and  _148
REMARK   60  A    between atoms: _154  and  _156
REMARK   61  A    between atoms: _156  and  _157
REMARK   62  A    between atoms: _156  and  _159
REMARK   63  A    between atoms: _159  and  _160
REMARK   64  A    between atoms: _163  and  _165
REMARK   65  A    between atoms: _165  and  _166
REMARK   66  A    between atoms: _165  and  _168
REMARK   67  A    between atoms: _168  and  _169
REMARK   68  A    between atoms: _174  and  _176
REMARK   69  A    between atoms: _176  and  _177
REMARK   70  A    between atoms: _180  and  _182
REMARK   71  A    between atoms: _182  and  _183
REMARK   72  A    between atoms: _182  and  _185
REMARK   73  A    between atoms: _185  and  _186
REMARK   74  A    between atoms: _186  and  _187
REMARK   75  A    between atoms: _190  and  _192
REMARK   76  A    between atoms: _192  and  _193
REMARK   77  A    between atoms: _192  and  _195
REMARK   78  A    between atoms: _195  and  _196
REMARK   79  A    between atoms: _196  and  _197
REMARK   80  A    between atoms: _197  and  _198
REMARK   81  A    between atoms: _207  and  _209
REMARK   82  A    between atoms: _209  and  _210
REMARK   83  A    between atoms: _209  and  _212
REMARK   84  A    between atoms: _212  and  _213
REMARK   85  A    between atoms: _216  and  _218
REMARK   86  A    between atoms: _227  and  _230
REMARK   87  A    between atoms: _230  and  _231
REMARK   88  A    between atoms: _236  and  _237
REMARK   89  A    between atoms: _243  and  _245
REMARK   90  A    between atoms: _245  and  _246
REMARK   91  A    between atoms: _245  and  _248
REMARK   92  A    between atoms: _248  and  _249
REMARK   93  A    between atoms: _254  and  _256
REMARK   94  A    between atoms: _256  and  _257
REMARK   95  A    between atoms: _256  and  _259
REMARK   96  A    between atoms: _259  and  _260
REMARK   97  A    between atoms: _265  and  _266
REMARK   98  A    between atoms: _268  and  _270
REMARK   99  A    between atoms: _270  and  _271
REMARK  100  A    between atoms: _270  and  _273
REMARK  101  A    between atoms: _273  and  _274
REMARK  102  A    between atoms: _274  and  _275
REMARK  103  A    between atoms: _275  and  _276
REMARK  104  A    between atoms: _285  and  _287
REMARK  105  A    between atoms: _287  and  _288
REMARK  106  A    between atoms: _287  and  _290
REMARK  107  A    between atoms: _290  and  _291
REMARK  108  A    between atoms: _291  and  _292
REMARK  109  A    between atoms: _295  and  _297
REMARK  110  A    between atoms: _297  and  _298
REMARK  111  A    between atoms: _297  and  _300
REMARK  112  A    between atoms: _300  and  _301
REMARK  113  A    between atoms: _307  and  _309
REMARK  114  A    between atoms: _309  and  _310
REMARK  115  A    between atoms: _309  and  _312
REMARK  116  A    between atoms: _312  and  _313
REMARK  117  A    between atoms: _313  and  _314
REMARK  118  A    between atoms: _316  and  _318
REMARK  119  A    between atoms: _318  and  _319
REMARK  120  A    between atoms: _318  and  _321
REMARK  121  A    between atoms: _321  and  _322
REMARK  122  A    between atoms: _327  and  _329
REMARK  123  A    between atoms: _329  and  _330
REMARK  124  A    between atoms: _329  and  _332
REMARK  125  A    between atoms: _332  and  _333
REMARK  126  A    between atoms: _336  and  _338
REMARK  127  A    between atoms: _338  and  _339
REMARK  128  A    between atoms: _338  and  _341
REMARK  129  A    between atoms: _341  and  _342
REMARK  130  A    between atoms: _342  and  _343
REMARK  131  A    between atoms: _348  and  _350
REMARK  132  A    between atoms: _350  and  _351
REMARK  133  A    between atoms: _350  and  _353
REMARK  134  A    between atoms: _353  and  _354
REMARK  135  A    between atoms: _354  and  _355
REMARK  136  A    between atoms: _355  and  _356
REMARK  137  A    between atoms: _365  and  _367
REMARK  138  A    between atoms: _367  and  _368
REMARK  139  A    between atoms: _367  and  _370
REMARK  140  A    between atoms: _370  and  _371
REMARK  141  A    between atoms: _374  and  _376
REMARK  142  A    between atoms: _376  and  _377
REMARK  143  A    between atoms: _376  and  _379
REMARK  144  A    between atoms: _379  and  _380
REMARK  145  A    between atoms: _380  and  _381
REMARK  146  A    between atoms: _381  and  _382
REMARK                            x       y       z     vdW  Elec       q    Type
REMARK                         _______ _______ _______ _____ _____    ______ ____
ROOT
ATOM      1  O   HOH     1      -2.356  11.443   4.691  0.00  0.00    +0.000 OA
ENDROOT
TORSDOF 0
REMARK  Name = ../refined-set-2016/2qx0/2qx0_pocket.pdb
REMARK  146 active torsions:
REMARK  status: ('A' for Active; 'I' for Inactive)
REMARK    1  A    between atoms: _1  and  _3
REMARK    2  A    between atoms: _3  and  _4
REMARK    3  A    between atoms: _7  and  _9
REMARK    4  A    between atoms: _9  and  _10
REMARK    5  A    between atoms: _9  and  _12
REMARK    6  A    between atoms: _12  and  _13
REMARK    7  A    between atoms: _16  and  _18
REMARK    8  A    between atoms: _18  and  _19
REMARK    9  A    between atoms: _21  and  _23
REMARK   10  A    between atoms: _23  and  _24
REMARK   11  A    between atoms: _23  and  _26
REMARK   12  A    between atoms: _26  and  _27
REMARK   13  A    between atoms: _29  and  _31
REMARK   14  A    between atoms: _31  and  _32
REMARK   15  A    between atoms: _31  and  _34
REMARK   16  A    between atoms: _34  and  _35
REMARK   17  A    between atoms: _40  and  _42
REMARK   18  A    between atoms: _42  and  _43
REMARK   19  A    between atoms: _42  and  _45
REMARK   20  A    between atoms: _45  and  _46
REMARK   21  A    between atoms: _51  and  _52
REMARK   22  A    between atoms: _54  and  _56
REMARK   23  A    between atoms: _56  and  _57
REMARK   24  A    between atoms: _56  and  _59
REMARK   25  A    between atoms: _59  and  _60
REMARK   26  A    between atoms: _60  and  _61
REMARK   27  A    between atoms: _61  and  _62
REMARK   28  A    between atoms: _71  and  _73
REMARK   29  A    between atoms: _73  and  _74
REMARK   30  A    between atoms: _73  and  _76
REMARK   31  A    between atoms: _76  and  _77
REMARK   32  A    between atoms: _80  and  _82
REMARK   33  A    between atoms: _82  and  _83
REMARK   34  A    between atoms: _82  and  _85
REMARK   35  A    between atoms: _85  and  _86
REMARK   36  A    between atoms: _86  and  _87
REMARK   37  A    between atoms: _87  and  _88
REMARK   38  A    between atoms: _88  and  _89
REMARK   39  A    between atoms: _94  and  _95
REMARK   40  A    between atoms: _100  and  _102
REMARK   41  A    between atoms: _102  and  _103
REMARK   42  A    between atoms: _102  and  _105
REMARK   43  A    between atoms: _105  and  _106
REMARK   44  A    between atoms: _109  and  _111
REMARK   45  A    between atoms: _111  and  _112
REMARK   46  A    between atoms: _114  and  _116
REMARK   47  A    between atoms: _116  and  _117
REMARK   48  A    between atoms: _116  and  _119
REMARK   49  A    between atoms: _119  and  _120
REMARK   50  A    between atoms: _120  and  _121
REMARK   51  A    between atoms: _127  and  _128
REMARK   52  A    between atoms: _133  and  _135
REMARK   53  A    between atoms: _135  and  _136
REMARK   54  A    between atoms: _135  and  _138
REMARK   55  A    between atoms: _138  and  _139
REMARK   56  A    between atoms: _142  and  _144
REMARK   57  A    between atoms: _144  and  _145
REMARK   58  A    between atoms: _144  and  _147
REMARK   59  A    between atoms: _147  and  _148
REMARK   60  A    between atoms: _154  and  _156
REMARK   61  A    between atoms: _156  and  _157
REMARK   62  A    between atoms: _156  and  _159
REMARK   63  A    between atoms: _159  and  _160
REMARK   64  A    between atoms: _163  and  _165
REMARK   65  A    between atoms: _165  and  _166
REMARK   66  A    between atoms: _165  and  _168
REMARK   67  A    between atoms: _168  and  _169
REMARK   68  A    between atoms: _174  and  _176
REMARK   69  A    between atoms: _176  and  _177
REMARK   70  A    between atoms: _180  and  _182
REMARK   71  A    between atoms: _182  and  _183
REMARK   72  A    between atoms: _182  and  _185
REMARK   73  A    between atoms: _185  and  _186
REMARK   74  A    between atoms: _186  and  _187
REMARK   75  A    between atoms: _190  and  _192
REMARK   76  A    between atoms: _192  and  _193
REMARK   77  A    between atoms: _192  and  _195
REMARK   78  A    between atoms: _195  and  _196
REMARK   79  A    between atoms: _196  and  _197
REMARK   80  A    between atoms: _197  and  _198
REMARK   81  A    between atoms: _207  and  _209
REMARK   82  A    between atoms: _209  and  _210
REMARK   83  A    between atoms: _209  and  _212
REMARK   84  A    between atoms: _212  and  _213
REMARK   85  A    between atoms: _216  and  _218
REMARK   86  A    between atoms: _227  and  _230
REMARK   87  A    between atoms: _230  and  _231
REMARK   88  A    between atoms: _236  and  _237
REMARK   89  A    between atoms: _243  and  _245
REMARK   90  A    between atoms: _245  and  _246
REMARK   91  A    between atoms: _245  and  _248
REMARK   92  A    between atoms: _248  and  _249
REMARK   93  A    between atoms: _254  and  _256
REMARK   94  A    between atoms: _256  and  _257
REMARK   95  A    between atoms: _256  and  _259
REMARK   96  A    between atoms: _259  and  _260
REMARK   97  A    between atoms: _265  and  _266
REMARK   98  A    between atoms: _268  and  _270
REMARK   99  A    between atoms: _270  and  _271
REMARK  100  A    between atoms: _270  and  _273
REMARK  101  A    between atoms: _273  and  _274
REMARK  102  A    between atoms: _274  and  _275
REMARK  103  A    between atoms: _275  and  _276
REMARK  104  A    between atoms: _285  and  _287
REMARK  105  A    between atoms: _287  and  _288
REMARK  106  A    between atoms: _287  and  _290
REMARK  107  A    between atoms: _290  and  _291
REMARK  108  A    between atoms: _291  and  _292
REMARK  109  A    between atoms: _295  and  _297
REMARK  110  A    between atoms: _297  and  _298
REMARK  111  A    between atoms: _297  and  _300
REMARK  112  A    between atoms: _300  and  _301
REMARK  113  A    between atoms: _307  and  _309
REMARK  114  A    between atoms: _309  and  _310
REMARK  115  A    between atoms: _309  and  _312
REMARK  116  A    between atoms: _312  and  _313
REMARK  117  A    between atoms: _313  and  _314
REMARK  118  A    between atoms: _316  and  _318
REMARK  119  A    between atoms: _318  and  _319
REMARK  120  A    between atoms: _318  and  _321
REMARK  121  A    between atoms: _321  and  _322
REMARK  122  A    between atoms: _327  and  _329
REMARK  123  A    between atoms: _329  and  _330
REMARK  124  A    between atoms: _329  and  _332
REMARK  125  A    between atoms: _332  and  _333
REMARK  126  A    between atoms: _336  and  _338
REMARK  127  A    between atoms: _338  and  _339
REMARK  128  A    between atoms: _338  and  _341
REMARK  129  A    between atoms: _341  and  _342
REMARK  130  A    between atoms: _342  and  _343
REMARK  131  A    between atoms: _348  and  _350
REMARK  132  A    between atoms: _350  and  _351
REMARK  133  A    between atoms: _350  and  _353
REMARK  134  A    between atoms: _353  and  _354
REMARK  135  A    between atoms: _354  and  _355
REMARK  136  A    between atoms: _355  and  _356
REMARK  137  A    between atoms: _365  and  _367
REMARK  138  A    between atoms: _367  and  _368
REMARK  139  A    between atoms: _367  and  _370
REMARK  140  A    between atoms: _370  and  _371
REMARK  141  A    between atoms: _374  and  _376
REMARK  142  A    between atoms: _376  and  _377
REMARK  143  A    between atoms: _376  and  _379
REMARK  144  A    between atoms: _379  and  _380
REMARK  145  A    between atoms: _380  and  _381
REMARK  146  A    between atoms: _381  and  _382
REMARK                            x       y       z     vdW  Elec       q    Type
REMARK                         _______ _______ _______ _____ _____    ______ ____
ROOT
ATOM      1  O   HOH     1       2.385  13.937   0.971  0.00  0.00    +0.000 OA
ENDROOT
TORSDOF 0
REMARK  Name = ../refined-set-2016/2qx0/2qx0_pocket.pdb
REMARK  146 active torsions:
REMARK  status: ('A' for Active; 'I' for Inactive)
REMARK    1  A    between atoms: _1  and  _3
REMARK    2  A    between atoms: _3  and  _4
REMARK    3  A    between atoms: _7  and  _9
REMARK    4  A    between atoms: _9  and  _10
REMARK    5  A    between atoms: _9  and  _12
REMARK    6  A    between atoms: _12  and  _13
REMARK    7  A    between atoms: _16  and  _18
REMARK    8  A    between atoms: _18  and  _19
REMARK    9  A    between atoms: _21  and  _23
REMARK   10  A    between atoms: _23  and  _24
REMARK   11  A    between atoms: _23  and  _26
REMARK   12  A    between atoms: _26  and  _27
REMARK   13  A    between atoms: _29  and  _31
REMARK   14  A    between atoms: _31  and  _32
REMARK   15  A    between atoms: _31  and  _34
REMARK   16  A    between atoms: _34  and  _35
REMARK   17  A    between atoms: _40  and  _42
REMARK   18  A    between atoms: _42  and  _43
REMARK   19  A    between atoms: _42  and  _45
REMARK   20  A    between atoms: _45  and  _46
REMARK   21  A    between atoms: _51  and  _52
REMARK   22  A    between atoms: _54  and  _56
REMARK   23  A    between atoms: _56  and  _57
REMARK   24  A    between atoms: _56  and  _59
REMARK   25  A    between atoms: _59  and  _60
REMARK   26  A    between atoms: _60  and  _61
REMARK   27  A    between atoms: _61  and  _62
REMARK   28  A    between atoms: _71  and  _73
REMARK   29  A    between atoms: _73  and  _74
REMARK   30  A    between atoms: _73  and  _76
REMARK   31  A    between atoms: _76  and  _77
REMARK   32  A    between atoms: _80  and  _82
REMARK   33  A    between atoms: _82  and  _83
REMARK   34  A    between atoms: _82  and  _85
REMARK   35  A    between atoms: _85  and  _86
REMARK   36  A    between atoms: _86  and  _87
REMARK   37  A    between atoms: _87  and  _88
REMARK   38  A    between atoms: _88  and  _89
REMARK   39  A    between atoms: _94  and  _95
REMARK   40  A    between atoms: _100  and  _102
REMARK   41  A    between atoms: _102  and  _103
REMARK   42  A    between atoms: _102  and  _105
REMARK   43  A    between atoms: _105  and  _106
REMARK   44  A    between atoms: _109  and  _111
REMARK   45  A    between atoms: _111  and  _112
REMARK   46  A    between atoms: _114  and  _116
REMARK   47  A    between atoms: _116  and  _117
REMARK   48  A    between atoms: _116  and  _119
REMARK   49  A    between atoms: _119  and  _120
REMARK   50  A    between atoms: _120  and  _121
REMARK   51  A    between atoms: _127  and  _128
REMARK   52  A    between atoms: _133  and  _135
REMARK   53  A    between atoms: _135  and  _136
REMARK   54  A    between atoms: _135  and  _138
REMARK   55  A    between atoms: _138  and  _139
REMARK   56  A    between atoms: _142  and  _144
REMARK   57  A    between atoms: _144  and  _145
REMARK   58  A    between atoms: _144  and  _147
REMARK   59  A    between atoms: _147  and  _148
REMARK   60  A    between atoms: _154  and  _156
REMARK   61  A    between atoms: _156  and  _157
REMARK   62  A    between atoms: _156  and  _159
REMARK   63  A    between atoms: _159  and  _160
REMARK   64  A    between atoms: _163  and  _165
REMARK   65  A    between atoms: _165  and  _166
REMARK   66  A    between atoms: _165  and  _168
REMARK   67  A    between atoms: _168  and  _169
REMARK   68  A    between atoms: _174  and  _176
REMARK   69  A    between atoms: _176  and  _177
REMARK   70  A    between atoms: _180  and  _182
REMARK   71  A    between atoms: _182  and  _183
REMARK   72  A    between atoms: _182  and  _185
REMARK   73  A    between atoms: _185  and  _186
REMARK   74  A    between atoms: _186  and  _187
REMARK   75  A    between atoms: _190  and  _192
REMARK   76  A    between atoms: _192  and  _193
REMARK   77  A    between atoms: _192  and  _195
REMARK   78  A    between atoms: _195  and  _196
REMARK   79  A    between atoms: _196  and  _197
REMARK   80  A    between atoms: _197  and  _198
REMARK   81  A    between atoms: _207  and  _209
REMARK   82  A    between atoms: _209  and  _210
REMARK   83  A    between atoms: _209  and  _212
REMARK   84  A    between atoms: _212  and  _213
REMARK   85  A    between atoms: _216  and  _218
REMARK   86  A    between atoms: _227  and  _230
REMARK   87  A    between atoms: _230  and  _231
REMARK   88  A    between atoms: _236  and  _237
REMARK   89  A    between atoms: _243  and  _245
REMARK   90  A    between atoms: _245  and  _246
REMARK   91  A    between atoms: _245  and  _248
REMARK   92  A    between atoms: _248  and  _249
REMARK   93  A    between atoms: _254  and  _256
REMARK   94  A    between atoms: _256  and  _257
REMARK   95  A    between atoms: _256  and  _259
REMARK   96  A    between atoms: _259  and  _260
REMARK   97  A    between atoms: _265  and  _266
REMARK   98  A    between atoms: _268  and  _270
REMARK   99  A    between atoms: _270  and  _271
REMARK  100  A    between atoms: _270  and  _273
REMARK  101  A    between atoms: _273  and  _274
REMARK  102  A    between atoms: _274  and  _275
REMARK  103  A    between atoms: _275  and  _276
REMARK  104  A    between atoms: _285  and  _287
REMARK  105  A    between atoms: _287  and  _288
REMARK  106  A    between atoms: _287  and  _290
REMARK  107  A    between atoms: _290  and  _291
REMARK  108  A    between atoms: _291  and  _292
REMARK  109  A    between atoms: _295  and  _297
REMARK  110  A    between atoms: _297  and  _298
REMARK  111  A    between atoms: _297  and  _300
REMARK  112  A    between atoms: _300  and  _301
REMARK  113  A    between atoms: _307  and  _309
REMARK  114  A    between atoms: _309  and  _310
REMARK  115  A    between atoms: _309  and  _312
REMARK  116  A    between atoms: _312  and  _313
REMARK  117  A    between atoms: _313  and  _314
REMARK  118  A    between atoms: _316  and  _318
REMARK  119  A    between atoms: _318  and  _319
REMARK  120  A    between atoms: _318  and  _321
REMARK  121  A    between atoms: _321  and  _322
REMARK  122  A    between atoms: _327  and  _329
REMARK  123  A    between atoms: _329  and  _330
REMARK  124  A    between atoms: _329  and  _332
REMARK  125  A    between atoms: _332  and  _333
REMARK  126  A    between atoms: _336  and  _338
REMARK  127  A    between atoms: _338  and  _339
REMARK  128  A    between atoms: _338  and  _341
REMARK  129  A    between atoms: _341  and  _342
REMARK  130  A    between atoms: _342  and  _343
REMARK  131  A    between atoms: _348  and  _350
REMARK  132  A    between atoms: _350  and  _351
REMARK  133  A    between atoms: _350  and  _353
REMARK  134  A    between atoms: _353  and  _354
REMARK  135  A    between atoms: _354  and  _355
REMARK  136  A    between atoms: _355  and  _356
REMARK  137  A    between atoms: _365  and  _367
REMARK  138  A    between atoms: _367  and  _368
REMARK  139  A    between atoms: _367  and  _370
REMARK  140  A    between atoms: _370  and  _371
REMARK  141  A    between atoms: _374  and  _376
REMARK  142  A    between atoms: _376  and  _377
REMARK  143  A    between atoms: _376  and  _379
REMARK  144  A    between atoms: _379  and  _380
REMARK  145  A    between atoms: _380  and  _381
REMARK  146  A    between atoms: _381  and  _382
REMARK                            x       y       z     vdW  Elec       q    Type
REMARK                         _______ _______ _______ _____ _____    ______ ____
ROOT
ATOM      1  O   HOH     1       2.941   0.664   3.278  0.00  0.00    +0.000 OA
ENDROOT
TORSDOF 0
REMARK  Name = ../refined-set-2016/2qx0/2qx0_pocket.pdb
REMARK  146 active torsions:
REMARK  status: ('A' for Active; 'I' for Inactive)
REMARK    1  A    between atoms: _1  and  _3
REMARK    2  A    between atoms: _3  and  _4
REMARK    3  A    between atoms: _7  and  _9
REMARK    4  A    between atoms: _9  and  _10
REMARK    5  A    between atoms: _9  and  _12
REMARK    6  A    between atoms: _12  and  _13
REMARK    7  A    between atoms: _16  and  _18
REMARK    8  A    between atoms: _18  and  _19
REMARK    9  A    between atoms: _21  and  _23
REMARK   10  A    between atoms: _23  and  _24
REMARK   11  A    between atoms: _23  and  _26
REMARK   12  A    between atoms: _26  and  _27
REMARK   13  A    between atoms: _29  and  _31
REMARK   14  A    between atoms: _31  and  _32
REMARK   15  A    between atoms: _31  and  _34
REMARK   16  A    between atoms: _34  and  _35
REMARK   17  A    between atoms: _40  and  _42
REMARK   18  A    between atoms: _42  and  _43
REMARK   19  A    between atoms: _42  and  _45
REMARK   20  A    between atoms: _45  and  _46
REMARK   21  A    between atoms: _51  and  _52
REMARK   22  A    between atoms: _54  and  _56
REMARK   23  A    between atoms: _56  and  _57
REMARK   24  A    between atoms: _56  and  _59
REMARK   25  A    between atoms: _59  and  _60
REMARK   26  A    between atoms: _60  and  _61
REMARK   27  A    between atoms: _61  and  _62
REMARK   28  A    between atoms: _71  and  _73
REMARK   29  A    between atoms: _73  and  _74
REMARK   30  A    between atoms: _73  and  _76
REMARK   31  A    between atoms: _76  and  _77
REMARK   32  A    between atoms: _80  and  _82
REMARK   33  A    between atoms: _82  and  _83
REMARK   34  A    between atoms: _82  and  _85
REMARK   35  A    between atoms: _85  and  _86
REMARK   36  A    between atoms: _86  and  _87
REMARK   37  A    between atoms: _87  and  _88
REMARK   38  A    between atoms: _88  and  _89
REMARK   39  A    between atoms: _94  and  _95
REMARK   40  A    between atoms: _100  and  _102
REMARK   41  A    between atoms: _102  and  _103
REMARK   42  A    between atoms: _102  and  _105
REMARK   43  A    between atoms: _105  and  _106
REMARK   44  A    between atoms: _109  and  _111
REMARK   45  A    between atoms: _111  and  _112
REMARK   46  A    between atoms: _114  and  _116
REMARK   47  A    between atoms: _116  and  _117
REMARK   48  A    between atoms: _116  and  _119
REMARK   49  A    between atoms: _119  and  _120
REMARK   50  A    between atoms: _120  and  _121
REMARK   51  A    between atoms: _127  and  _128
REMARK   52  A    between atoms: _133  and  _135
REMARK   53  A    between atoms: _135  and  _136
REMARK   54  A    between atoms: _135  and  _138
REMARK   55  A    between atoms: _138  and  _139
REMARK   56  A    between atoms: _142  and  _144
REMARK   57  A    between atoms: _144  and  _145
REMARK   58  A    between atoms: _144  and  _147
REMARK   59  A    between atoms: _147  and  _148
REMARK   60  A    between atoms: _154  and  _156
REMARK   61  A    between atoms: _156  and  _157
REMARK   62  A    between atoms: _156  and  _159
REMARK   63  A    between atoms: _159  and  _160
REMARK   64  A    between atoms: _163  and  _165
REMARK   65  A    between atoms: _165  and  _166
REMARK   66  A    between atoms: _165  and  _168
REMARK   67  A    between atoms: _168  and  _169
REMARK   68  A    between atoms: _174  and  _176
REMARK   69  A    between atoms: _176  and  _177
REMARK   70  A    between atoms: _180  and  _182
REMARK   71  A    between atoms: _182  and  _183
REMARK   72  A    between atoms: _182  and  _185
REMARK   73  A    between atoms: _185  and  _186
REMARK   74  A    between atoms: _186  and  _187
REMARK   75  A    between atoms: _190  and  _192
REMARK   76  A    between atoms: _192  and  _193
REMARK   77  A    between atoms: _192  and  _195
REMARK   78  A    between atoms: _195  and  _196
REMARK   79  A    between atoms: _196  and  _197
REMARK   80  A    between atoms: _197  and  _198
REMARK   81  A    between atoms: _207  and  _209
REMARK   82  A    between atoms: _209  and  _210
REMARK   83  A    between atoms: _209  and  _212
REMARK   84  A    between atoms: _212  and  _213
REMARK   85  A    between atoms: _216  and  _218
REMARK   86  A    between atoms: _227  and  _230
REMARK   87  A    between atoms: _230  and  _231
REMARK   88  A    between atoms: _236  and  _237
REMARK   89  A    between atoms: _243  and  _245
REMARK   90  A    between atoms: _245  and  _246
REMARK   91  A    between atoms: _245  and  _248
REMARK   92  A    between atoms: _248  and  _249
REMARK   93  A    between atoms: _254  and  _256
REMARK   94  A    between atoms: _256  and  _257
REMARK   95  A    between atoms: _256  and  _259
REMARK   96  A    between atoms: _259  and  _260
REMARK   97  A    between atoms: _265  and  _266
REMARK   98  A    between atoms: _268  and  _270
REMARK   99  A    between atoms: _270  and  _271
REMARK  100  A    between atoms: _270  and  _273
REMARK  101  A    between atoms: _273  and  _274
REMARK  102  A    between atoms: _274  and  _275
REMARK  103  A    between atoms: _275  and  _276
REMARK  104  A    between atoms: _285  and  _287
REMARK  105  A    between atoms: _287  and  _288
REMARK  106  A    between atoms: _287  and  _290
REMARK  107  A    between atoms: _290  and  _291
REMARK  108  A    between atoms: _291  and  _292
REMARK  109  A    between atoms: _295  and  _297
REMARK  110  A    between atoms: _297  and  _298
REMARK  111  A    between atoms: _297  and  _300
REMARK  112  A    between atoms: _300  and  _301
REMARK  113  A    between atoms: _307  and  _309
REMARK  114  A    between atoms: _309  and  _310
REMARK  115  A    between atoms: _309  and  _312
REMARK  116  A    between atoms: _312  and  _313
REMARK  117  A    between atoms: _313  and  _314
REMARK  118  A    between atoms: _316  and  _318
REMARK  119  A    between atoms: _318  and  _319
REMARK  120  A    between atoms: _318  and  _321
REMARK  121  A    between atoms: _321  and  _322
REMARK  122  A    between atoms: _327  and  _329
REMARK  123  A    between atoms: _329  and  _330
REMARK  124  A    between atoms: _329  and  _332
REMARK  125  A    between atoms: _332  and  _333
REMARK  126  A    between atoms: _336  and  _338
REMARK  127  A    between atoms: _338  and  _339
REMARK  128  A    between atoms: _338  and  _341
REMARK  129  A    between atoms: _341  and  _342
REMARK  130  A    between atoms: _342  and  _343
REMARK  131  A    between atoms: _348  and  _350
REMARK  132  A    between atoms: _350  and  _351
REMARK  133  A    between atoms: _350  and  _353
REMARK  134  A    between atoms: _353  and  _354
REMARK  135  A    between atoms: _354  and  _355
REMARK  136  A    between atoms: _355  and  _356
REMARK  137  A    between atoms: _365  and  _367
REMARK  138  A    between atoms: _367  and  _368
REMARK  139  A    between atoms: _367  and  _370
REMARK  140  A    between atoms: _370  and  _371
REMARK  141  A    between atoms: _374  and  _376
REMARK  142  A    between atoms: _376  and  _377
REMARK  143  A    between atoms: _376  and  _379
REMARK  144  A    between atoms: _379  and  _380
REMARK  145  A    between atoms: _380  and  _381
REMARK  146  A    between atoms: _381  and  _382
REMARK                            x       y       z     vdW  Elec       q    Type
REMARK                         _______ _______ _______ _____ _____    ______ ____
ROOT
ATOM      1  O   HOH     1      -1.643   0.654  12.640  0.00  0.00    +0.000 OA
ENDROOT
TORSDOF 0
REMARK  Name = ../refined-set-2016/2qx0/2qx0_pocket.pdb
REMARK  146 active torsions:
REMARK  status: ('A' for Active; 'I' for Inactive)
REMARK    1  A    between atoms: _1  and  _3
REMARK    2  A    between atoms: _3  and  _4
REMARK    3  A    between atoms: _7  and  _9
REMARK    4  A    between atoms: _9  and  _10
REMARK    5  A    between atoms: _9  and  _12
REMARK    6  A    between atoms: _12  and  _13
REMARK    7  A    between atoms: _16  and  _18
REMARK    8  A    between atoms: _18  and  _19
REMARK    9  A    between atoms: _21  and  _23
REMARK   10  A    between atoms: _23  and  _24
REMARK   11  A    between atoms: _23  and  _26
REMARK   12  A    between atoms: _26  and  _27
REMARK   13  A    between atoms: _29  and  _31
REMARK   14  A    between atoms: _31  and  _32
REMARK   15  A    between atoms: _31  and  _34
REMARK   16  A    between atoms: _34  and  _35
REMARK   17  A    between atoms: _40  and  _42
REMARK   18  A    between atoms: _42  and  _43
REMARK   19  A    between atoms: _42  and  _45
REMARK   20  A    between atoms: _45  and  _46
REMARK   21  A    between atoms: _51  and  _52
REMARK   22  A    between atoms: _54  and  _56
REMARK   23  A    between atoms: _56  and  _57
REMARK   24  A    between atoms: _56  and  _59
REMARK   25  A    between atoms: _59  and  _60
REMARK   26  A    between atoms: _60  and  _61
REMARK   27  A    between atoms: _61  and  _62
REMARK   28  A    between atoms: _71  and  _73
REMARK   29  A    between atoms: _73  and  _74
REMARK   30  A    between atoms: _73  and  _76
REMARK   31  A    between atoms: _76  and  _77
REMARK   32  A    between atoms: _80  and  _82
REMARK   33  A    between atoms: _82  and  _83
REMARK   34  A    between atoms: _82  and  _85
REMARK   35  A    between atoms: _85  and  _86
REMARK   36  A    between atoms: _86  and  _87
REMARK   37  A    between atoms: _87  and  _88
REMARK   38  A    between atoms: _88  and  _89
REMARK   39  A    between atoms: _94  and  _95
REMARK   40  A    between atoms: _100  and  _102
REMARK   41  A    between atoms: _102  and  _103
REMARK   42  A    between atoms: _102  and  _105
REMARK   43  A    between atoms: _105  and  _106
REMARK   44  A    between atoms: _109  and  _111
REMARK   45  A    between atoms: _111  and  _112
REMARK   46  A    between atoms: _114  and  _116
REMARK   47  A    between atoms: _116  and  _117
REMARK   48  A    between atoms: _116  and  _119
REMARK   49  A    between atoms: _119  and  _120
REMARK   50  A    between atoms: _120  and  _121
REMARK   51  A    between atoms: _127  and  _128
REMARK   52  A    between atoms: _133  and  _135
REMARK   53  A    between atoms: _135  and  _136
REMARK   54  A    between atoms: _135  and  _138
REMARK   55  A    between atoms: _138  and  _139
REMARK   56  A    between atoms: _142  and  _144
REMARK   57  A    between atoms: _144  and  _145
REMARK   58  A    between atoms: _144  and  _147
REMARK   59  A    between atoms: _147  and  _148
REMARK   60  A    between atoms: _154  and  _156
REMARK   61  A    between atoms: _156  and  _157
REMARK   62  A    between atoms: _156  and  _159
REMARK   63  A    between atoms: _159  and  _160
REMARK   64  A    between atoms: _163  and  _165
REMARK   65  A    between atoms: _165  and  _166
REMARK   66  A    between atoms: _165  and  _168
REMARK   67  A    between atoms: _168  and  _169
REMARK   68  A    between atoms: _174  and  _176
REMARK   69  A    between atoms: _176  and  _177
REMARK   70  A    between atoms: _180  and  _182
REMARK   71  A    between atoms: _182  and  _183
REMARK   72  A    between atoms: _182  and  _185
REMARK   73  A    between atoms: _185  and  _186
REMARK   74  A    between atoms: _186  and  _187
REMARK   75  A    between atoms: _190  and  _192
REMARK   76  A    between atoms: _192  and  _193
REMARK   77  A    between atoms: _192  and  _195
REMARK   78  A    between atoms: _195  and  _196
REMARK   79  A    between atoms: _196  and  _197
REMARK   80  A    between atoms: _197  and  _198
REMARK   81  A    between atoms: _207  and  _209
REMARK   82  A    between atoms: _209  and  _210
REMARK   83  A    between atoms: _209  and  _212
REMARK   84  A    between atoms: _212  and  _213
REMARK   85  A    between atoms: _216  and  _218
REMARK   86  A    between atoms: _227  and  _230
REMARK   87  A    between atoms: _230  and  _231
REMARK   88  A    between atoms: _236  and  _237
REMARK   89  A    between atoms: _243  and  _245
REMARK   90  A    between atoms: _245  and  _246
REMARK   91  A    between atoms: _245  and  _248
REMARK   92  A    between atoms: _248  and  _249
REMARK   93  A    between atoms: _254  and  _256
REMARK   94  A    between atoms: _256  and  _257
REMARK   95  A    between atoms: _256  and  _259
REMARK   96  A    between atoms: _259  and  _260
REMARK   97  A    between atoms: _265  and  _266
REMARK   98  A    between atoms: _268  and  _270
REMARK   99  A    between atoms: _270  and  _271
REMARK  100  A    between atoms: _270  and  _273
REMARK  101  A    between atoms: _273  and  _274
REMARK  102  A    between atoms: _274  and  _275
REMARK  103  A    between atoms: _275  and  _276
REMARK  104  A    between atoms: _285  and  _287
REMARK  105  A    between atoms: _287  and  _288
REMARK  106  A    between atoms: _287  and  _290
REMARK  107  A    between atoms: _290  and  _291
REMARK  108  A    between atoms: _291  and  _292
REMARK  109  A    between atoms: _295  and  _297
REMARK  110  A    between atoms: _297  and  _298
REMARK  111  A    between atoms: _297  and  _300
REMARK  112  A    between atoms: _300  and  _301
REMARK  113  A    between atoms: _307  and  _309
REMARK  114  A    between atoms: _309  and  _310
REMARK  115  A    between atoms: _309  and  _312
REMARK  116  A    between atoms: _312  and  _313
REMARK  117  A    between atoms: _313  and  _314
REMARK  118  A    between atoms: _316  and  _318
REMARK  119  A    between atoms: _318  and  _319
REMARK  120  A    between atoms: _318  and  _321
REMARK  121  A    between atoms: _321  and  _322
REMARK  122  A    between atoms: _327  and  _329
REMARK  123  A    between atoms: _329  and  _330
REMARK  124  A    between atoms: _329  and  _332
REMARK  125  A    between atoms: _332  and  _333
REMARK  126  A    between atoms: _336  and  _338
REMARK  127  A    between atoms: _338  and  _339
REMARK  128  A    between atoms: _338  and  _341
REMARK  129  A    between atoms: _341  and  _342
REMARK  130  A    between atoms: _342  and  _343
REMARK  131  A    between atoms: _348  and  _350
REMARK  132  A    between atoms: _350  and  _351
REMARK  133  A    between atoms: _350  and  _353
REMARK  134  A    between atoms: _353  and  _354
REMARK  135  A    between atoms: _354  and  _355
REMARK  136  A    between atoms: _355  and  _356
REMARK  137  A    between atoms: _365  and  _367
REMARK  138  A    between atoms: _367  and  _368
REMARK  139  A    between atoms: _367  and  _370
REMARK  140  A    between atoms: _370  and  _371
REMARK  141  A    between atoms: _374  and  _376
REMARK  142  A    between atoms: _376  and  _377
REMARK  143  A    between atoms: _376  and  _379
REMARK  144  A    between atoms: _379  and  _380
REMARK  145  A    between atoms: _380  and  _381
REMARK  146  A    between atoms: _381  and  _382
REMARK                            x       y       z     vdW  Elec       q    Type
REMARK                         _______ _______ _______ _____ _____    ______ ____
ROOT
ATOM      1  O   HOH     1       1.921   3.240   3.259  0.00  0.00    +0.000 OA
ENDROOT
TORSDOF 0
REMARK  Name = ../refined-set-2016/2qx0/2qx0_pocket.pdb
REMARK  146 active torsions:
REMARK  status: ('A' for Active; 'I' for Inactive)
REMARK    1  A    between atoms: _1  and  _3
REMARK    2  A    between atoms: _3  and  _4
REMARK    3  A    between atoms: _7  and  _9
REMARK    4  A    between atoms: _9  and  _10
REMARK    5  A    between atoms: _9  and  _12
REMARK    6  A    between atoms: _12  and  _13
REMARK    7  A    between atoms: _16  and  _18
REMARK    8  A    between atoms: _18  and  _19
REMARK    9  A    between atoms: _21  and  _23
REMARK   10  A    between atoms: _23  and  _24
REMARK   11  A    between atoms: _23  and  _26
REMARK   12  A    between atoms: _26  and  _27
REMARK   13  A    between atoms: _29  and  _31
REMARK   14  A    between atoms: _31  and  _32
REMARK   15  A    between atoms: _31  and  _34
REMARK   16  A    between atoms: _34  and  _35
REMARK   17  A    between atoms: _40  and  _42
REMARK   18  A    between atoms: _42  and  _43
REMARK   19  A    between atoms: _42  and  _45
REMARK   20  A    between atoms: _45  and  _46
REMARK   21  A    between atoms: _51  and  _52
REMARK   22  A    between atoms: _54  and  _56
REMARK   23  A    between atoms: _56  and  _57
REMARK   24  A    between atoms: _56  and  _59
REMARK   25  A    between atoms: _59  and  _60
REMARK   26  A    between atoms: _60  and  _61
REMARK   27  A    between atoms: _61  and  _62
REMARK   28  A    between atoms: _71  and  _73
REMARK   29  A    between atoms: _73  and  _74
REMARK   30  A    between atoms: _73  and  _76
REMARK   31  A    between atoms: _76  and  _77
REMARK   32  A    between atoms: _80  and  _82
REMARK   33  A    between atoms: _82  and  _83
REMARK   34  A    between atoms: _82  and  _85
REMARK   35  A    between atoms: _85  and  _86
REMARK   36  A    between atoms: _86  and  _87
REMARK   37  A    between atoms: _87  and  _88
REMARK   38  A    between atoms: _88  and  _89
REMARK   39  A    between atoms: _94  and  _95
REMARK   40  A    between atoms: _100  and  _102
REMARK   41  A    between atoms: _102  and  _103
REMARK   42  A    between atoms: _102  and  _105
REMARK   43  A    between atoms: _105  and  _106
REMARK   44  A    between atoms: _109  and  _111
REMARK   45  A    between atoms: _111  and  _112
REMARK   46  A    between atoms: _114  and  _116
REMARK   47  A    between atoms: _116  and  _117
REMARK   48  A    between atoms: _116  and  _119
REMARK   49  A    between atoms: _119  and  _120
REMARK   50  A    between atoms: _120  and  _121
REMARK   51  A    between atoms: _127  and  _128
REMARK   52  A    between atoms: _133  and  _135
REMARK   53  A    between atoms: _135  and  _136
REMARK   54  A    between atoms: _135  and  _138
REMARK   55  A    between atoms: _138  and  _139
REMARK   56  A    between atoms: _142  and  _144
REMARK   57  A    between atoms: _144  and  _145
REMARK   58  A    between atoms: _144  and  _147
REMARK   59  A    between atoms: _147  and  _148
REMARK   60  A    between atoms: _154  and  _156
REMARK   61  A    between atoms: _156  and  _157
REMARK   62  A    between atoms: _156  and  _159
REMARK   63  A    between atoms: _159  and  _160
REMARK   64  A    between atoms: _163  and  _165
REMARK   65  A    between atoms: _165  and  _166
REMARK   66  A    between atoms: _165  and  _168
REMARK   67  A    between atoms: _168  and  _169
REMARK   68  A    between atoms: _174  and  _176
REMARK   69  A    between atoms: _176  and  _177
REMARK   70  A    between atoms: _180  and  _182
REMARK   71  A    between atoms: _182  and  _183
REMARK   72  A    between atoms: _182  and  _185
REMARK   73  A    between atoms: _185  and  _186
REMARK   74  A    between atoms: _186  and  _187
REMARK   75  A    between atoms: _190  and  _192
REMARK   76  A    between atoms: _192  and  _193
REMARK   77  A    between atoms: _192  and  _195
REMARK   78  A    between atoms: _195  and  _196
REMARK   79  A    between atoms: _196  and  _197
REMARK   80  A    between atoms: _197  and  _198
REMARK   81  A    between atoms: _207  and  _209
REMARK   82  A    between atoms: _209  and  _210
REMARK   83  A    between atoms: _209  and  _212
REMARK   84  A    between atoms: _212  and  _213
REMARK   85  A    between atoms: _216  and  _218
REMARK   86  A    between atoms: _227  and  _230
REMARK   87  A    between atoms: _230  and  _231
REMARK   88  A    between atoms: _236  and  _237
REMARK   89  A    between atoms: _243  and  _245
REMARK   90  A    between atoms: _245  and  _246
REMARK   91  A    between atoms: _245  and  _248
REMARK   92  A    between atoms: _248  and  _249
REMARK   93  A    between atoms: _254  and  _256
REMARK   94  A    between atoms: _256  and  _257
REMARK   95  A    between atoms: _256  and  _259
REMARK   96  A    between atoms: _259  and  _260
REMARK   97  A    between atoms: _265  and  _266
REMARK   98  A    between atoms: _268  and  _270
REMARK   99  A    between atoms: _270  and  _271
REMARK  100  A    between atoms: _270  and  _273
REMARK  101  A    between atoms: _273  and  _274
REMARK  102  A    between atoms: _274  and  _275
REMARK  103  A    between atoms: _275  and  _276
REMARK  104  A    between atoms: _285  and  _287
REMARK  105  A    between atoms: _287  and  _288
REMARK  106  A    between atoms: _287  and  _290
REMARK  107  A    between atoms: _290  and  _291
REMARK  108  A    between atoms: _291  and  _292
REMARK  109  A    between atoms: _295  and  _297
REMARK  110  A    between atoms: _297  and  _298
REMARK  111  A    between atoms: _297  and  _300
REMARK  112  A    between atoms: _300  and  _301
REMARK  113  A    between atoms: _307  and  _309
REMARK  114  A    between atoms: _309  and  _310
REMARK  115  A    between atoms: _309  and  _312
REMARK  116  A    between atoms: _312  and  _313
REMARK  117  A    between atoms: _313  and  _314
REMARK  118  A    between atoms: _316  and  _318
REMARK  119  A    between atoms: _318  and  _319
REMARK  120  A    between atoms: _318  and  _321
REMARK  121  A    between atoms: _321  and  _322
REMARK  122  A    between atoms: _327  and  _329
REMARK  123  A    between atoms: _329  and  _330
REMARK  124  A    between atoms: _329  and  _332
REMARK  125  A    between atoms: _332  and  _333
REMARK  126  A    between atoms: _336  and  _338
REMARK  127  A    between atoms: _338  and  _339
REMARK  128  A    between atoms: _338  and  _341
REMARK  129  A    between atoms: _341  and  _342
REMARK  130  A    between atoms: _342  and  _343
REMARK  131  A    between atoms: _348  and  _350
REMARK  132  A    between atoms: _350  and  _351
REMARK  133  A    between atoms: _350  and  _353
REMARK  134  A    between atoms: _353  and  _354
REMARK  135  A    between atoms: _354  and  _355
REMARK  136  A    between atoms: _355  and  _356
REMARK  137  A    between atoms: _365  and  _367
REMARK  138  A    between atoms: _367  and  _368
REMARK  139  A    between atoms: _367  and  _370
REMARK  140  A    between atoms: _370  and  _371
REMARK  141  A    between atoms: _374  and  _376
REMARK  142  A    between atoms: _376  and  _377
REMARK  143  A    between atoms: _376  and  _379
REMARK  144  A    between atoms: _379  and  _380
REMARK  145  A    between atoms: _380  and  _381
REMARK  146  A    between atoms: _381  and  _382
REMARK                            x       y       z     vdW  Elec       q    Type
REMARK                         _______ _______ _______ _____ _____    ______ ____
ROOT
ATOM      1  O   HOH     1       3.574   8.667  13.175  0.00  0.00    +0.000 OA
ENDROOT
TORSDOF 0
REMARK  Name = ../refined-set-2016/2qx0/2qx0_pocket.pdb
REMARK  146 active torsions:
REMARK  status: ('A' for Active; 'I' for Inactive)
REMARK    1  A    between atoms: _1  and  _3
REMARK    2  A    between atoms: _3  and  _4
REMARK    3  A    between atoms: _7  and  _9
REMARK    4  A    between atoms: _9  and  _10
REMARK    5  A    between atoms: _9  and  _12
REMARK    6  A    between atoms: _12  and  _13
REMARK    7  A    between atoms: _16  and  _18
REMARK    8  A    between atoms: _18  and  _19
REMARK    9  A    between atoms: _21  and  _23
REMARK   10  A    between atoms: _23  and  _24
REMARK   11  A    between atoms: _23  and  _26
REMARK   12  A    between atoms: _26  and  _27
REMARK   13  A    between atoms: _29  and  _31
REMARK   14  A    between atoms: _31  and  _32
REMARK   15  A    between atoms: _31  and  _34
REMARK   16  A    between atoms: _34  and  _35
REMARK   17  A    between atoms: _40  and  _42
REMARK   18  A    between atoms: _42  and  _43
REMARK   19  A    between atoms: _42  and  _45
REMARK   20  A    between atoms: _45  and  _46
REMARK   21  A    between atoms: _51  and  _52
REMARK   22  A    between atoms: _54  and  _56
REMARK   23  A    between atoms: _56  and  _57
REMARK   24  A    between atoms: _56  and  _59
REMARK   25  A    between atoms: _59  and  _60
REMARK   26  A    between atoms: _60  and  _61
REMARK   27  A    between atoms: _61  and  _62
REMARK   28  A    between atoms: _71  and  _73
REMARK   29  A    between atoms: _73  and  _74
REMARK   30  A    between atoms: _73  and  _76
REMARK   31  A    between atoms: _76  and  _77
REMARK   32  A    between atoms: _80  and  _82
REMARK   33  A    between atoms: _82  and  _83
REMARK   34  A    between atoms: _82  and  _85
REMARK   35  A    between atoms: _85  and  _86
REMARK   36  A    between atoms: _86  and  _87
REMARK   37  A    between atoms: _87  and  _88
REMARK   38  A    between atoms: _88  and  _89
REMARK   39  A    between atoms: _94  and  _95
REMARK   40  A    between atoms: _100  and  _102
REMARK   41  A    between atoms: _102  and  _103
REMARK   42  A    between atoms: _102  and  _105
REMARK   43  A    between atoms: _105  and  _106
REMARK   44  A    between atoms: _109  and  _111
REMARK   45  A    between atoms: _111  and  _112
REMARK   46  A    between atoms: _114  and  _116
REMARK   47  A    between atoms: _116  and  _117
REMARK   48  A    between atoms: _116  and  _119
REMARK   49  A    between atoms: _119  and  _120
REMARK   50  A    between atoms: _120  and  _121
REMARK   51  A    between atoms: _127  and  _128
REMARK   52  A    between atoms: _133  and  _135
REMARK   53  A    between atoms: _135  and  _136
REMARK   54  A    between atoms: _135  and  _138
REMARK   55  A    between atoms: _138  and  _139
REMARK   56  A    between atoms: _142  and  _144
REMARK   57  A    between atoms: _144  and  _145
REMARK   58  A    between atoms: _144  and  _147
REMARK   59  A    between atoms: _147  and  _148
REMARK   60  A    between atoms: _154  and  _156
REMARK   61  A    between atoms: _156  and  _157
REMARK   62  A    between atoms: _156  and  _159
REMARK   63  A    between atoms: _159  and  _160
REMARK   64  A    between atoms: _163  and  _165
REMARK   65  A    between atoms: _165  and  _166
REMARK   66  A    between atoms: _165  and  _168
REMARK   67  A    between atoms: _168  and  _169
REMARK   68  A    between atoms: _174  and  _176
REMARK   69  A    between atoms: _176  and  _177
REMARK   70  A    between atoms: _180  and  _182
REMARK   71  A    between atoms: _182  and  _183
REMARK   72  A    between atoms: _182  and  _185
REMARK   73  A    between atoms: _185  and  _186
REMARK   74  A    between atoms: _186  and  _187
REMARK   75  A    between atoms: _190  and  _192
REMARK   76  A    between atoms: _192  and  _193
REMARK   77  A    between atoms: _192  and  _195
REMARK   78  A    between atoms: _195  and  _196
REMARK   79  A    between atoms: _196  and  _197
REMARK   80  A    between atoms: _197  and  _198
REMARK   81  A    between atoms: _207  and  _209
REMARK   82  A    between atoms: _209  and  _210
REMARK   83  A    between atoms: _209  and  _212
REMARK   84  A    between atoms: _212  and  _213
REMARK   85  A    between atoms: _216  and  _218
REMARK   86  A    between atoms: _227  and  _230
REMARK   87  A    between atoms: _230  and  _231
REMARK   88  A    between atoms: _236  and  _237
REMARK   89  A    between atoms: _243  and  _245
REMARK   90  A    between atoms: _245  and  _246
REMARK   91  A    between atoms: _245  and  _248
REMARK   92  A    between atoms: _248  and  _249
REMARK   93  A    between atoms: _254  and  _256
REMARK   94  A    between atoms: _256  and  _257
REMARK   95  A    between atoms: _256  and  _259
REMARK   96  A    between atoms: _259  and  _260
REMARK   97  A    between atoms: _265  and  _266
REMARK   98  A    between atoms: _268  and  _270
REMARK   99  A    between atoms: _270  and  _271
REMARK  100  A    between atoms: _270  and  _273
REMARK  101  A    between atoms: _273  and  _274
REMARK  102  A    between atoms: _274  and  _275
REMARK  103  A    between atoms: _275  and  _276
REMARK  104  A    between atoms: _285  and  _287
REMARK  105  A    between atoms: _287  and  _288
REMARK  106  A    between atoms: _287  and  _290
REMARK  107  A    between atoms: _290  and  _291
REMARK  108  A    between atoms: _291  and  _292
REMARK  109  A    between atoms: _295  and  _297
REMARK  110  A    between atoms: _297  and  _298
REMARK  111  A    between atoms: _297  and  _300
REMARK  112  A    between atoms: _300  and  _301
REMARK  113  A    between atoms: _307  and  _309
REMARK  114  A    between atoms: _309  and  _310
REMARK  115  A    between atoms: _309  and  _312
REMARK  116  A    between atoms: _312  and  _313
REMARK  117  A    between atoms: _313  and  _314
REMARK  118  A    between atoms: _316  and  _318
REMARK  119  A    between atoms: _318  and  _319
REMARK  120  A    between atoms: _318  and  _321
REMARK  121  A    between atoms: _321  and  _322
REMARK  122  A    between atoms: _327  and  _329
REMARK  123  A    between atoms: _329  and  _330
REMARK  124  A    between atoms: _329  and  _332
REMARK  125  A    between atoms: _332  and  _333
REMARK  126  A    between atoms: _336  and  _338
REMARK  127  A    between atoms: _338  and  _339
REMARK  128  A    between atoms: _338  and  _341
REMARK  129  A    between atoms: _341  and  _342
REMARK  130  A    between atoms: _342  and  _343
REMARK  131  A    between atoms: _348  and  _350
REMARK  132  A    between atoms: _350  and  _351
REMARK  133  A    between atoms: _350  and  _353
REMARK  134  A    between atoms: _353  and  _354
REMARK  135  A    between atoms: _354  and  _355
REMARK  136  A    between atoms: _355  and  _356
REMARK  137  A    between atoms: _365  and  _367
REMARK  138  A    between atoms: _367  and  _368
REMARK  139  A    between atoms: _367  and  _370
REMARK  140  A    between atoms: _370  and  _371
REMARK  141  A    between atoms: _374  and  _376
REMARK  142  A    between atoms: _376  and  _377
REMARK  143  A    between atoms: _376  and  _379
REMARK  144  A    between atoms: _379  and  _380
REMARK  145  A    between atoms: _380  and  _381
REMARK  146  A    between atoms: _381  and  _382
REMARK                            x       y       z     vdW  Elec       q    Type
REMARK                         _______ _______ _______ _____ _____    ______ ____
ROOT
ATOM      1  O   HOH     1       5.882   3.620   7.859  0.00  0.00    +0.000 OA
ENDROOT
TORSDOF 0
REMARK  Name = ../refined-set-2016/2qx0/2qx0_pocket.pdb
REMARK  146 active torsions:
REMARK  status: ('A' for Active; 'I' for Inactive)
REMARK    1  A    between atoms: _1  and  _3
REMARK    2  A    between atoms: _3  and  _4
REMARK    3  A    between atoms: _7  and  _9
REMARK    4  A    between atoms: _9  and  _10
REMARK    5  A    between atoms: _9  and  _12
REMARK    6  A    between atoms: _12  and  _13
REMARK    7  A    between atoms: _16  and  _18
REMARK    8  A    between atoms: _18  and  _19
REMARK    9  A    between atoms: _21  and  _23
REMARK   10  A    between atoms: _23  and  _24
REMARK   11  A    between atoms: _23  and  _26
REMARK   12  A    between atoms: _26  and  _27
REMARK   13  A    between atoms: _29  and  _31
REMARK   14  A    between atoms: _31  and  _32
REMARK   15  A    between atoms: _31  and  _34
REMARK   16  A    between atoms: _34  and  _35
REMARK   17  A    between atoms: _40  and  _42
REMARK   18  A    between atoms: _42  and  _43
REMARK   19  A    between atoms: _42  and  _45
REMARK   20  A    between atoms: _45  and  _46
REMARK   21  A    between atoms: _51  and  _52
REMARK   22  A    between atoms: _54  and  _56
REMARK   23  A    between atoms: _56  and  _57
REMARK   24  A    between atoms: _56  and  _59
REMARK   25  A    between atoms: _59  and  _60
REMARK   26  A    between atoms: _60  and  _61
REMARK   27  A    between atoms: _61  and  _62
REMARK   28  A    between atoms: _71  and  _73
REMARK   29  A    between atoms: _73  and  _74
REMARK   30  A    between atoms: _73  and  _76
REMARK   31  A    between atoms: _76  and  _77
REMARK   32  A    between atoms: _80  and  _82
REMARK   33  A    between atoms: _82  and  _83
REMARK   34  A    between atoms: _82  and  _85
REMARK   35  A    between atoms: _85  and  _86
REMARK   36  A    between atoms: _86  and  _87
REMARK   37  A    between atoms: _87  and  _88
REMARK   38  A    between atoms: _88  and  _89
REMARK   39  A    between atoms: _94  and  _95
REMARK   40  A    between atoms: _100  and  _102
REMARK   41  A    between atoms: _102  and  _103
REMARK   42  A    between atoms: _102  and  _105
REMARK   43  A    between atoms: _105  and  _106
REMARK   44  A    between atoms: _109  and  _111
REMARK   45  A    between atoms: _111  and  _112
REMARK   46  A    between atoms: _114  and  _116
REMARK   47  A    between atoms: _116  and  _117
REMARK   48  A    between atoms: _116  and  _119
REMARK   49  A    between atoms: _119  and  _120
REMARK   50  A    between atoms: _120  and  _121
REMARK   51  A    between atoms: _127  and  _128
REMARK   52  A    between atoms: _133  and  _135
REMARK   53  A    between atoms: _135  and  _136
REMARK   54  A    between atoms: _135  and  _138
REMARK   55  A    between atoms: _138  and  _139
REMARK   56  A    between atoms: _142  and  _144
REMARK   57  A    between atoms: _144  and  _145
REMARK   58  A    between atoms: _144  and  _147
REMARK   59  A    between atoms: _147  and  _148
REMARK   60  A    between atoms: _154  and  _156
REMARK   61  A    between atoms: _156  and  _157
REMARK   62  A    between atoms: _156  and  _159
REMARK   63  A    between atoms: _159  and  _160
REMARK   64  A    between atoms: _163  and  _165
REMARK   65  A    between atoms: _165  and  _166
REMARK   66  A    between atoms: _165  and  _168
REMARK   67  A    between atoms: _168  and  _169
REMARK   68  A    between atoms: _174  and  _176
REMARK   69  A    between atoms: _176  and  _177
REMARK   70  A    between atoms: _180  and  _182
REMARK   71  A    between atoms: _182  and  _183
REMARK   72  A    between atoms: _182  and  _185
REMARK   73  A    between atoms: _185  and  _186
REMARK   74  A    between atoms: _186  and  _187
REMARK   75  A    between atoms: _190  and  _192
REMARK   76  A    between atoms: _192  and  _193
REMARK   77  A    between atoms: _192  and  _195
REMARK   78  A    between atoms: _195  and  _196
REMARK   79  A    between atoms: _196  and  _197
REMARK   80  A    between atoms: _197  and  _198
REMARK   81  A    between atoms: _207  and  _209
REMARK   82  A    between atoms: _209  and  _210
REMARK   83  A    between atoms: _209  and  _212
REMARK   84  A    between atoms: _212  and  _213
REMARK   85  A    between atoms: _216  and  _218
REMARK   86  A    between atoms: _227  and  _230
REMARK   87  A    between atoms: _230  and  _231
REMARK   88  A    between atoms: _236  and  _237
REMARK   89  A    between atoms: _243  and  _245
REMARK   90  A    between atoms: _245  and  _246
REMARK   91  A    between atoms: _245  and  _248
REMARK   92  A    between atoms: _248  and  _249
REMARK   93  A    between atoms: _254  and  _256
REMARK   94  A    between atoms: _256  and  _257
REMARK   95  A    between atoms: _256  and  _259
REMARK   96  A    between atoms: _259  and  _260
REMARK   97  A    between atoms: _265  and  _266
REMARK   98  A    between atoms: _268  and  _270
REMARK   99  A    between atoms: _270  and  _271
REMARK  100  A    between atoms: _270  and  _273
REMARK  101  A    between atoms: _273  and  _274
REMARK  102  A    between atoms: _274  and  _275
REMARK  103  A    between atoms: _275  and  _276
REMARK  104  A    between atoms: _285  and  _287
REMARK  105  A    between atoms: _287  and  _288
REMARK  106  A    between atoms: _287  and  _290
REMARK  107  A    between atoms: _290  and  _291
REMARK  108  A    between atoms: _291  and  _292
REMARK  109  A    between atoms: _295  and  _297
REMARK  110  A    between atoms: _297  and  _298
REMARK  111  A    between atoms: _297  and  _300
REMARK  112  A    between atoms: _300  and  _301
REMARK  113  A    between atoms: _307  and  _309
REMARK  114  A    between atoms: _309  and  _310
REMARK  115  A    between atoms: _309  and  _312
REMARK  116  A    between atoms: _312  and  _313
REMARK  117  A    between atoms: _313  and  _314
REMARK  118  A    between atoms: _316  and  _318
REMARK  119  A    between atoms: _318  and  _319
REMARK  120  A    between atoms: _318  and  _321
REMARK  121  A    between atoms: _321  and  _322
REMARK  122  A    between atoms: _327  and  _329
REMARK  123  A    between atoms: _329  and  _330
REMARK  124  A    between atoms: _329  and  _332
REMARK  125  A    between atoms: _332  and  _333
REMARK  126  A    between atoms: _336  and  _338
REMARK  127  A    between atoms: _338  and  _339
REMARK  128  A    between atoms: _338  and  _341
REMARK  129  A    between atoms: _341  and  _342
REMARK  130  A    between atoms: _342  and  _343
REMARK  131  A    between atoms: _348  and  _350
REMARK  132  A    between atoms: _350  and  _351
REMARK  133  A    between atoms: _350  and  _353
REMARK  134  A    between atoms: _353  and  _354
REMARK  135  A    between atoms: _354  and  _355
REMARK  136  A    between atoms: _355  and  _356
REMARK  137  A    between atoms: _365  and  _367
REMARK  138  A    between atoms: _367  and  _368
REMARK  139  A    between atoms: _367  and  _370
REMARK  140  A    between atoms: _370  and  _371
REMARK  141  A    between atoms: _374  and  _376
REMARK  142  A    between atoms: _376  and  _377
REMARK  143  A    between atoms: _376  and  _379
REMARK  144  A    between atoms: _379  and  _380
REMARK  145  A    between atoms: _380  and  _381
REMARK  146  A    between atoms: _381  and  _382
REMARK                            x       y       z     vdW  Elec       q    Type
REMARK                         _______ _______ _______ _____ _____    ______ ____
ROOT
ATOM      1  O   HOH     1       9.561   6.697  10.003  0.00  0.00    +0.000 OA
ENDROOT
TORSDOF 0
REMARK  Name = ../refined-set-2016/2qx0/2qx0_pocket.pdb
REMARK  146 active torsions:
REMARK  status: ('A' for Active; 'I' for Inactive)
REMARK    1  A    between atoms: _1  and  _3
REMARK    2  A    between atoms: _3  and  _4
REMARK    3  A    between atoms: _7  and  _9
REMARK    4  A    between atoms: _9  and  _10
REMARK    5  A    between atoms: _9  and  _12
REMARK    6  A    between atoms: _12  and  _13
REMARK    7  A    between atoms: _16  and  _18
REMARK    8  A    between atoms: _18  and  _19
REMARK    9  A    between atoms: _21  and  _23
REMARK   10  A    between atoms: _23  and  _24
REMARK   11  A    between atoms: _23  and  _26
REMARK   12  A    between atoms: _26  and  _27
REMARK   13  A    between atoms: _29  and  _31
REMARK   14  A    between atoms: _31  and  _32
REMARK   15  A    between atoms: _31  and  _34
REMARK   16  A    between atoms: _34  and  _35
REMARK   17  A    between atoms: _40  and  _42
REMARK   18  A    between atoms: _42  and  _43
REMARK   19  A    between atoms: _42  and  _45
REMARK   20  A    between atoms: _45  and  _46
REMARK   21  A    between atoms: _51  and  _52
REMARK   22  A    between atoms: _54  and  _56
REMARK   23  A    between atoms: _56  and  _57
REMARK   24  A    between atoms: _56  and  _59
REMARK   25  A    between atoms: _59  and  _60
REMARK   26  A    between atoms: _60  and  _61
REMARK   27  A    between atoms: _61  and  _62
REMARK   28  A    between atoms: _71  and  _73
REMARK   29  A    between atoms: _73  and  _74
REMARK   30  A    between atoms: _73  and  _76
REMARK   31  A    between atoms: _76  and  _77
REMARK   32  A    between atoms: _80  and  _82
REMARK   33  A    between atoms: _82  and  _83
REMARK   34  A    between atoms: _82  and  _85
REMARK   35  A    between atoms: _85  and  _86
REMARK   36  A    between atoms: _86  and  _87
REMARK   37  A    between atoms: _87  and  _88
REMARK   38  A    between atoms: _88  and  _89
REMARK   39  A    between atoms: _94  and  _95
REMARK   40  A    between atoms: _100  and  _102
REMARK   41  A    between atoms: _102  and  _103
REMARK   42  A    between atoms: _102  and  _105
REMARK   43  A    between atoms: _105  and  _106
REMARK   44  A    between atoms: _109  and  _111
REMARK   45  A    between atoms: _111  and  _112
REMARK   46  A    between atoms: _114  and  _116
REMARK   47  A    between atoms: _116  and  _117
REMARK   48  A    between atoms: _116  and  _119
REMARK   49  A    between atoms: _119  and  _120
REMARK   50  A    between atoms: _120  and  _121
REMARK   51  A    between atoms: _127  and  _128
REMARK   52  A    between atoms: _133  and  _135
REMARK   53  A    between atoms: _135  and  _136
REMARK   54  A    between atoms: _135  and  _138
REMARK   55  A    between atoms: _138  and  _139
REMARK   56  A    between atoms: _142  and  _144
REMARK   57  A    between atoms: _144  and  _145
REMARK   58  A    between atoms: _144  and  _147
REMARK   59  A    between atoms: _147  and  _148
REMARK   60  A    between atoms: _154  and  _156
REMARK   61  A    between atoms: _156  and  _157
REMARK   62  A    between atoms: _156  and  _159
REMARK   63  A    between atoms: _159  and  _160
REMARK   64  A    between atoms: _163  and  _165
REMARK   65  A    between atoms: _165  and  _166
REMARK   66  A    between atoms: _165  and  _168
REMARK   67  A    between atoms: _168  and  _169
REMARK   68  A    between atoms: _174  and  _176
REMARK   69  A    between atoms: _176  and  _177
REMARK   70  A    between atoms: _180  and  _182
REMARK   71  A    between atoms: _182  and  _183
REMARK   72  A    between atoms: _182  and  _185
REMARK   73  A    between atoms: _185  and  _186
REMARK   74  A    between atoms: _186  and  _187
REMARK   75  A    between atoms: _190  and  _192
REMARK   76  A    between atoms: _192  and  _193
REMARK   77  A    between atoms: _192  and  _195
REMARK   78  A    between atoms: _195  and  _196
REMARK   79  A    between atoms: _196  and  _197
REMARK   80  A    between atoms: _197  and  _198
REMARK   81  A    between atoms: _207  and  _209
REMARK   82  A    between atoms: _209  and  _210
REMARK   83  A    between atoms: _209  and  _212
REMARK   84  A    between atoms: _212  and  _213
REMARK   85  A    between atoms: _216  and  _218
REMARK   86  A    between atoms: _227  and  _230
REMARK   87  A    between atoms: _230  and  _231
REMARK   88  A    between atoms: _236  and  _237
REMARK   89  A    between atoms: _243  and  _245
REMARK   90  A    between atoms: _245  and  _246
REMARK   91  A    between atoms: _245  and  _248
REMARK   92  A    between atoms: _248  and  _249
REMARK   93  A    between atoms: _254  and  _256
REMARK   94  A    between atoms: _256  and  _257
REMARK   95  A    between atoms: _256  and  _259
REMARK   96  A    between atoms: _259  and  _260
REMARK   97  A    between atoms: _265  and  _266
REMARK   98  A    between atoms: _268  and  _270
REMARK   99  A    between atoms: _270  and  _271
REMARK  100  A    between atoms: _270  and  _273
REMARK  101  A    between atoms: _273  and  _274
REMARK  102  A    between atoms: _274  and  _275
REMARK  103  A    between atoms: _275  and  _276
REMARK  104  A    between atoms: _285  and  _287
REMARK  105  A    between atoms: _287  and  _288
REMARK  106  A    between atoms: _287  and  _290
REMARK  107  A    between atoms: _290  and  _291
REMARK  108  A    between atoms: _291  and  _292
REMARK  109  A    between atoms: _295  and  _297
REMARK  110  A    between atoms: _297  and  _298
REMARK  111  A    between atoms: _297  and  _300
REMARK  112  A    between atoms: _300  and  _301
REMARK  113  A    between atoms: _307  and  _309
REMARK  114  A    between atoms: _309  and  _310
REMARK  115  A    between atoms: _309  and  _312
REMARK  116  A    between atoms: _312  and  _313
REMARK  117  A    between atoms: _313  and  _314
REMARK  118  A    between atoms: _316  and  _318
REMARK  119  A    between atoms: _318  and  _319
REMARK  120  A    between atoms: _318  and  _321
REMARK  121  A    between atoms: _321  and  _322
REMARK  122  A    between atoms: _327  and  _329
REMARK  123  A    between atoms: _329  and  _330
REMARK  124  A    between atoms: _329  and  _332
REMARK  125  A    between atoms: _332  and  _333
REMARK  126  A    between atoms: _336  and  _338
REMARK  127  A    between atoms: _338  and  _339
REMARK  128  A    between atoms: _338  and  _341
REMARK  129  A    between atoms: _341  and  _342
REMARK  130  A    between atoms: _342  and  _343
REMARK  131  A    between atoms: _348  and  _350
REMARK  132  A    between atoms: _350  and  _351
REMARK  133  A    between atoms: _350  and  _353
REMARK  134  A    between atoms: _353  and  _354
REMARK  135  A    between atoms: _354  and  _355
REMARK  136  A    between atoms: _355  and  _356
REMARK  137  A    between atoms: _365  and  _367
REMARK  138  A    between atoms: _367  and  _368
REMARK  139  A    between atoms: _367  and  _370
REMARK  140  A    between atoms: _370  and  _371
REMARK  141  A    between atoms: _374  and  _376
REMARK  142  A    between atoms: _376  and  _377
REMARK  143  A    between atoms: _376  and  _379
REMARK  144  A    between atoms: _379  and  _380
REMARK  145  A    between atoms: _380  and  _381
REMARK  146  A    between atoms: _381  and  _382
REMARK                            x       y       z     vdW  Elec       q    Type
REMARK                         _______ _______ _______ _____ _____    ______ ____
ROOT
ATOM      1  O   HOH     1       6.971  12.262  11.428  0.00  0.00    +0.000 OA
ENDROOT
TORSDOF 0
REMARK  Name = ../refined-set-2016/2qx0/2qx0_pocket.pdb
REMARK  146 active torsions:
REMARK  status: ('A' for Active; 'I' for Inactive)
REMARK    1  A    between atoms: _1  and  _3
REMARK    2  A    between atoms: _3  and  _4
REMARK    3  A    between atoms: _7  and  _9
REMARK    4  A    between atoms: _9  and  _10
REMARK    5  A    between atoms: _9  and  _12
REMARK    6  A    between atoms: _12  and  _13
REMARK    7  A    between atoms: _16  and  _18
REMARK    8  A    between atoms: _18  and  _19
REMARK    9  A    between atoms: _21  and  _23
REMARK   10  A    between atoms: _23  and  _24
REMARK   11  A    between atoms: _23  and  _26
REMARK   12  A    between atoms: _26  and  _27
REMARK   13  A    between atoms: _29  and  _31
REMARK   14  A    between atoms: _31  and  _32
REMARK   15  A    between atoms: _31  and  _34
REMARK   16  A    between atoms: _34  and  _35
REMARK   17  A    between atoms: _40  and  _42
REMARK   18  A    between atoms: _42  and  _43
REMARK   19  A    between atoms: _42  and  _45
REMARK   20  A    between atoms: _45  and  _46
REMARK   21  A    between atoms: _51  and  _52
REMARK   22  A    between atoms: _54  and  _56
REMARK   23  A    between atoms: _56  and  _57
REMARK   24  A    between atoms: _56  and  _59
REMARK   25  A    between atoms: _59  and  _60
REMARK   26  A    between atoms: _60  and  _61
REMARK   27  A    between atoms: _61  and  _62
REMARK   28  A    between atoms: _71  and  _73
REMARK   29  A    between atoms: _73  and  _74
REMARK   30  A    between atoms: _73  and  _76
REMARK   31  A    between atoms: _76  and  _77
REMARK   32  A    between atoms: _80  and  _82
REMARK   33  A    between atoms: _82  and  _83
REMARK   34  A    between atoms: _82  and  _85
REMARK   35  A    between atoms: _85  and  _86
REMARK   36  A    between atoms: _86  and  _87
REMARK   37  A    between atoms: _87  and  _88
REMARK   38  A    between atoms: _88  and  _89
REMARK   39  A    between atoms: _94  and  _95
REMARK   40  A    between atoms: _100  and  _102
REMARK   41  A    between atoms: _102  and  _103
REMARK   42  A    between atoms: _102  and  _105
REMARK   43  A    between atoms: _105  and  _106
REMARK   44  A    between atoms: _109  and  _111
REMARK   45  A    between atoms: _111  and  _112
REMARK   46  A    between atoms: _114  and  _116
REMARK   47  A    between atoms: _116  and  _117
REMARK   48  A    between atoms: _116  and  _119
REMARK   49  A    between atoms: _119  and  _120
REMARK   50  A    between atoms: _120  and  _121
REMARK   51  A    between atoms: _127  and  _128
REMARK   52  A    between atoms: _133  and  _135
REMARK   53  A    between atoms: _135  and  _136
REMARK   54  A    between atoms: _135  and  _138
REMARK   55  A    between atoms: _138  and  _139
REMARK   56  A    between atoms: _142  and  _144
REMARK   57  A    between atoms: _144  and  _145
REMARK   58  A    between atoms: _144  and  _147
REMARK   59  A    between atoms: _147  and  _148
REMARK   60  A    between atoms: _154  and  _156
REMARK   61  A    between atoms: _156  and  _157
REMARK   62  A    between atoms: _156  and  _159
REMARK   63  A    between atoms: _159  and  _160
REMARK   64  A    between atoms: _163  and  _165
REMARK   65  A    between atoms: _165  and  _166
REMARK   66  A    between atoms: _165  and  _168
REMARK   67  A    between atoms: _168  and  _169
REMARK   68  A    between atoms: _174  and  _176
REMARK   69  A    between atoms: _176  and  _177
REMARK   70  A    between atoms: _180  and  _182
REMARK   71  A    between atoms: _182  and  _183
REMARK   72  A    between atoms: _182  and  _185
REMARK   73  A    between atoms: _185  and  _186
REMARK   74  A    between atoms: _186  and  _187
REMARK   75  A    between atoms: _190  and  _192
REMARK   76  A    between atoms: _192  and  _193
REMARK   77  A    between atoms: _192  and  _195
REMARK   78  A    between atoms: _195  and  _196
REMARK   79  A    between atoms: _196  and  _197
REMARK   80  A    between atoms: _197  and  _198
REMARK   81  A    between atoms: _207  and  _209
REMARK   82  A    between atoms: _209  and  _210
REMARK   83  A    between atoms: _209  and  _212
REMARK   84  A    between atoms: _212  and  _213
REMARK   85  A    between atoms: _216  and  _218
REMARK   86  A    between atoms: _227  and  _230
REMARK   87  A    between atoms: _230  and  _231
REMARK   88  A    between atoms: _236  and  _237
REMARK   89  A    between atoms: _243  and  _245
REMARK   90  A    between atoms: _245  and  _246
REMARK   91  A    between atoms: _245  and  _248
REMARK   92  A    between atoms: _248  and  _249
REMARK   93  A    between atoms: _254  and  _256
REMARK   94  A    between atoms: _256  and  _257
REMARK   95  A    between atoms: _256  and  _259
REMARK   96  A    between atoms: _259  and  _260
REMARK   97  A    between atoms: _265  and  _266
REMARK   98  A    between atoms: _268  and  _270
REMARK   99  A    between atoms: _270  and  _271
REMARK  100  A    between atoms: _270  and  _273
REMARK  101  A    between atoms: _273  and  _274
REMARK  102  A    between atoms: _274  and  _275
REMARK  103  A    between atoms: _275  and  _276
REMARK  104  A    between atoms: _285  and  _287
REMARK  105  A    between atoms: _287  and  _288
REMARK  106  A    between atoms: _287  and  _290
REMARK  107  A    between atoms: _290  and  _291
REMARK  108  A    between atoms: _291  and  _292
REMARK  109  A    between atoms: _295  and  _297
REMARK  110  A    between atoms: _297  and  _298
REMARK  111  A    between atoms: _297  and  _300
REMARK  112  A    between atoms: _300  and  _301
REMARK  113  A    between atoms: _307  and  _309
REMARK  114  A    between atoms: _309  and  _310
REMARK  115  A    between atoms: _309  and  _312
REMARK  116  A    between atoms: _312  and  _313
REMARK  117  A    between atoms: _313  and  _314
REMARK  118  A    between atoms: _316  and  _318
REMARK  119  A    between atoms: _318  and  _319
REMARK  120  A    between atoms: _318  and  _321
REMARK  121  A    between atoms: _321  and  _322
REMARK  122  A    between atoms: _327  and  _329
REMARK  123  A    between atoms: _329  and  _330
REMARK  124  A    between atoms: _329  and  _332
REMARK  125  A    between atoms: _332  and  _333
REMARK  126  A    between atoms: _336  and  _338
REMARK  127  A    between atoms: _338  and  _339
REMARK  128  A    between atoms: _338  and  _341
REMARK  129  A    between atoms: _341  and  _342
REMARK  130  A    between atoms: _342  and  _343
REMARK  131  A    between atoms: _348  and  _350
REMARK  132  A    between atoms: _350  and  _351
REMARK  133  A    between atoms: _350  and  _353
REMARK  134  A    between atoms: _353  and  _354
REMARK  135  A    between atoms: _354  and  _355
REMARK  136  A    between atoms: _355  and  _356
REMARK  137  A    between atoms: _365  and  _367
REMARK  138  A    between atoms: _367  and  _368
REMARK  139  A    between atoms: _367  and  _370
REMARK  140  A    between atoms: _370  and  _371
REMARK  141  A    between atoms: _374  and  _376
REMARK  142  A    between atoms: _376  and  _377
REMARK  143  A    between atoms: _376  and  _379
REMARK  144  A    between atoms: _379  and  _380
REMARK  145  A    between atoms: _380  and  _381
REMARK  146  A    between atoms: _381  and  _382
REMARK                            x       y       z     vdW  Elec       q    Type
REMARK                         _______ _______ _______ _____ _____    ______ ____
ROOT
ATOM      1  O   HOH     1       1.163  13.082   4.720  0.00  0.00    +0.000 OA
ENDROOT
TORSDOF 0
REMARK  Name = ../refined-set-2016/2qx0/2qx0_pocket.pdb
REMARK  146 active torsions:
REMARK  status: ('A' for Active; 'I' for Inactive)
REMARK    1  A    between atoms: _1  and  _3
REMARK    2  A    between atoms: _3  and  _4
REMARK    3  A    between atoms: _7  and  _9
REMARK    4  A    between atoms: _9  and  _10
REMARK    5  A    between atoms: _9  and  _12
REMARK    6  A    between atoms: _12  and  _13
REMARK    7  A    between atoms: _16  and  _18
REMARK    8  A    between atoms: _18  and  _19
REMARK    9  A    between atoms: _21  and  _23
REMARK   10  A    between atoms: _23  and  _24
REMARK   11  A    between atoms: _23  and  _26
REMARK   12  A    between atoms: _26  and  _27
REMARK   13  A    between atoms: _29  and  _31
REMARK   14  A    between atoms: _31  and  _32
REMARK   15  A    between atoms: _31  and  _34
REMARK   16  A    between atoms: _34  and  _35
REMARK   17  A    between atoms: _40  and  _42
REMARK   18  A    between atoms: _42  and  _43
REMARK   19  A    between atoms: _42  and  _45
REMARK   20  A    between atoms: _45  and  _46
REMARK   21  A    between atoms: _51  and  _52
REMARK   22  A    between atoms: _54  and  _56
REMARK   23  A    between atoms: _56  and  _57
REMARK   24  A    between atoms: _56  and  _59
REMARK   25  A    between atoms: _59  and  _60
REMARK   26  A    between atoms: _60  and  _61
REMARK   27  A    between atoms: _61  and  _62
REMARK   28  A    between atoms: _71  and  _73
REMARK   29  A    between atoms: _73  and  _74
REMARK   30  A    between atoms: _73  and  _76
REMARK   31  A    between atoms: _76  and  _77
REMARK   32  A    between atoms: _80  and  _82
REMARK   33  A    between atoms: _82  and  _83
REMARK   34  A    between atoms: _82  and  _85
REMARK   35  A    between atoms: _85  and  _86
REMARK   36  A    between atoms: _86  and  _87
REMARK   37  A    between atoms: _87  and  _88
REMARK   38  A    between atoms: _88  and  _89
REMARK   39  A    between atoms: _94  and  _95
REMARK   40  A    between atoms: _100  and  _102
REMARK   41  A    between atoms: _102  and  _103
REMARK   42  A    between atoms: _102  and  _105
REMARK   43  A    between atoms: _105  and  _106
REMARK   44  A    between atoms: _109  and  _111
REMARK   45  A    between atoms: _111  and  _112
REMARK   46  A    between atoms: _114  and  _116
REMARK   47  A    between atoms: _116  and  _117
REMARK   48  A    between atoms: _116  and  _119
REMARK   49  A    between atoms: _119  and  _120
REMARK   50  A    between atoms: _120  and  _121
REMARK   51  A    between atoms: _127  and  _128
REMARK   52  A    between atoms: _133  and  _135
REMARK   53  A    between atoms: _135  and  _136
REMARK   54  A    between atoms: _135  and  _138
REMARK   55  A    between atoms: _138  and  _139
REMARK   56  A    between atoms: _142  and  _144
REMARK   57  A    between atoms: _144  and  _145
REMARK   58  A    between atoms: _144  and  _147
REMARK   59  A    between atoms: _147  and  _148
REMARK   60  A    between atoms: _154  and  _156
REMARK   61  A    between atoms: _156  and  _157
REMARK   62  A    between atoms: _156  and  _159
REMARK   63  A    between atoms: _159  and  _160
REMARK   64  A    between atoms: _163  and  _165
REMARK   65  A    between atoms: _165  and  _166
REMARK   66  A    between atoms: _165  and  _168
REMARK   67  A    between atoms: _168  and  _169
REMARK   68  A    between atoms: _174  and  _176
REMARK   69  A    between atoms: _176  and  _177
REMARK   70  A    between atoms: _180  and  _182
REMARK   71  A    between atoms: _182  and  _183
REMARK   72  A    between atoms: _182  and  _185
REMARK   73  A    between atoms: _185  and  _186
REMARK   74  A    between atoms: _186  and  _187
REMARK   75  A    between atoms: _190  and  _192
REMARK   76  A    between atoms: _192  and  _193
REMARK   77  A    between atoms: _192  and  _195
REMARK   78  A    between atoms: _195  and  _196
REMARK   79  A    between atoms: _196  and  _197
REMARK   80  A    between atoms: _197  and  _198
REMARK   81  A    between atoms: _207  and  _209
REMARK   82  A    between atoms: _209  and  _210
REMARK   83  A    between atoms: _209  and  _212
REMARK   84  A    between atoms: _212  and  _213
REMARK   85  A    between atoms: _216  and  _218
REMARK   86  A    between atoms: _227  and  _230
REMARK   87  A    between atoms: _230  and  _231
REMARK   88  A    between atoms: _236  and  _237
REMARK   89  A    between atoms: _243  and  _245
REMARK   90  A    between atoms: _245  and  _246
REMARK   91  A    between atoms: _245  and  _248
REMARK   92  A    between atoms: _248  and  _249
REMARK   93  A    between atoms: _254  and  _256
REMARK   94  A    between atoms: _256  and  _257
REMARK   95  A    between atoms: _256  and  _259
REMARK   96  A    between atoms: _259  and  _260
REMARK   97  A    between atoms: _265  and  _266
REMARK   98  A    between atoms: _268  and  _270
REMARK   99  A    between atoms: _270  and  _271
REMARK  100  A    between atoms: _270  and  _273
REMARK  101  A    between atoms: _273  and  _274
REMARK  102  A    between atoms: _274  and  _275
REMARK  103  A    between atoms: _275  and  _276
REMARK  104  A    between atoms: _285  and  _287
REMARK  105  A    between atoms: _287  and  _288
REMARK  106  A    between atoms: _287  and  _290
REMARK  107  A    between atoms: _290  and  _291
REMARK  108  A    between atoms: _291  and  _292
REMARK  109  A    between atoms: _295  and  _297
REMARK  110  A    between atoms: _297  and  _298
REMARK  111  A    between atoms: _297  and  _300
REMARK  112  A    between atoms: _300  and  _301
REMARK  113  A    between atoms: _307  and  _309
REMARK  114  A    between atoms: _309  and  _310
REMARK  115  A    between atoms: _309  and  _312
REMARK  116  A    between atoms: _312  and  _313
REMARK  117  A    between atoms: _313  and  _314
REMARK  118  A    between atoms: _316  and  _318
REMARK  119  A    between atoms: _318  and  _319
REMARK  120  A    between atoms: _318  and  _321
REMARK  121  A    between atoms: _321  and  _322
REMARK  122  A    between atoms: _327  and  _329
REMARK  123  A    between atoms: _329  and  _330
REMARK  124  A    between atoms: _329  and  _332
REMARK  125  A    between atoms: _332  and  _333
REMARK  126  A    between atoms: _336  and  _338
REMARK  127  A    between atoms: _338  and  _339
REMARK  128  A    between atoms: _338  and  _341
REMARK  129  A    between atoms: _341  and  _342
REMARK  130  A    between atoms: _342  and  _343
REMARK  131  A    between atoms: _348  and  _350
REMARK  132  A    between atoms: _350  and  _351
REMARK  133  A    between atoms: _350  and  _353
REMARK  134  A    between atoms: _353  and  _354
REMARK  135  A    between atoms: _354  and  _355
REMARK  136  A    between atoms: _355  and  _356
REMARK  137  A    between atoms: _365  and  _367
REMARK  138  A    between atoms: _367  and  _368
REMARK  139  A    between atoms: _367  and  _370
REMARK  140  A    between atoms: _370  and  _371
REMARK  141  A    between atoms: _374  and  _376
REMARK  142  A    between atoms: _376  and  _377
REMARK  143  A    between atoms: _376  and  _379
REMARK  144  A    between atoms: _379  and  _380
REMARK  145  A    between atoms: _380  and  _381
REMARK  146  A    between atoms: _381  and  _382
REMARK                            x       y       z     vdW  Elec       q    Type
REMARK                         _______ _______ _______ _____ _____    ______ ____
ROOT
ATOM      1  O   HOH     1       5.357  15.857   7.236  0.00  0.00    +0.000 OA
ENDROOT
TORSDOF 0
REMARK  Name = ../refined-set-2016/2qx0/2qx0_pocket.pdb
REMARK  146 active torsions:
REMARK  status: ('A' for Active; 'I' for Inactive)
REMARK    1  A    between atoms: _1  and  _3
REMARK    2  A    between atoms: _3  and  _4
REMARK    3  A    between atoms: _7  and  _9
REMARK    4  A    between atoms: _9  and  _10
REMARK    5  A    between atoms: _9  and  _12
REMARK    6  A    between atoms: _12  and  _13
REMARK    7  A    between atoms: _16  and  _18
REMARK    8  A    between atoms: _18  and  _19
REMARK    9  A    between atoms: _21  and  _23
REMARK   10  A    between atoms: _23  and  _24
REMARK   11  A    between atoms: _23  and  _26
REMARK   12  A    between atoms: _26  and  _27
REMARK   13  A    between atoms: _29  and  _31
REMARK   14  A    between atoms: _31  and  _32
REMARK   15  A    between atoms: _31  and  _34
REMARK   16  A    between atoms: _34  and  _35
REMARK   17  A    between atoms: _40  and  _42
REMARK   18  A    between atoms: _42  and  _43
REMARK   19  A    between atoms: _42  and  _45
REMARK   20  A    between atoms: _45  and  _46
REMARK   21  A    between atoms: _51  and  _52
REMARK   22  A    between atoms: _54  and  _56
REMARK   23  A    between atoms: _56  and  _57
REMARK   24  A    between atoms: _56  and  _59
REMARK   25  A    between atoms: _59  and  _60
REMARK   26  A    between atoms: _60  and  _61
REMARK   27  A    between atoms: _61  and  _62
REMARK   28  A    between atoms: _71  and  _73
REMARK   29  A    between atoms: _73  and  _74
REMARK   30  A    between atoms: _73  and  _76
REMARK   31  A    between atoms: _76  and  _77
REMARK   32  A    between atoms: _80  and  _82
REMARK   33  A    between atoms: _82  and  _83
REMARK   34  A    between atoms: _82  and  _85
REMARK   35  A    between atoms: _85  and  _86
REMARK   36  A    between atoms: _86  and  _87
REMARK   37  A    between atoms: _87  and  _88
REMARK   38  A    between atoms: _88  and  _89
REMARK   39  A    between atoms: _94  and  _95
REMARK   40  A    between atoms: _100  and  _102
REMARK   41  A    between atoms: _102  and  _103
REMARK   42  A    between atoms: _102  and  _105
REMARK   43  A    between atoms: _105  and  _106
REMARK   44  A    between atoms: _109  and  _111
REMARK   45  A    between atoms: _111  and  _112
REMARK   46  A    between atoms: _114  and  _116
REMARK   47  A    between atoms: _116  and  _117
REMARK   48  A    between atoms: _116  and  _119
REMARK   49  A    between atoms: _119  and  _120
REMARK   50  A    between atoms: _120  and  _121
REMARK   51  A    between atoms: _127  and  _128
REMARK   52  A    between atoms: _133  and  _135
REMARK   53  A    between atoms: _135  and  _136
REMARK   54  A    between atoms: _135  and  _138
REMARK   55  A    between atoms: _138  and  _139
REMARK   56  A    between atoms: _142  and  _144
REMARK   57  A    between atoms: _144  and  _145
REMARK   58  A    between atoms: _144  and  _147
REMARK   59  A    between atoms: _147  and  _148
REMARK   60  A    between atoms: _154  and  _156
REMARK   61  A    between atoms: _156  and  _157
REMARK   62  A    between atoms: _156  and  _159
REMARK   63  A    between atoms: _159  and  _160
REMARK   64  A    between atoms: _163  and  _165
REMARK   65  A    between atoms: _165  and  _166
REMARK   66  A    between atoms: _165  and  _168
REMARK   67  A    between atoms: _168  and  _169
REMARK   68  A    between atoms: _174  and  _176
REMARK   69  A    between atoms: _176  and  _177
REMARK   70  A    between atoms: _180  and  _182
REMARK   71  A    between atoms: _182  and  _183
REMARK   72  A    between atoms: _182  and  _185
REMARK   73  A    between atoms: _185  and  _186
REMARK   74  A    between atoms: _186  and  _187
REMARK   75  A    between atoms: _190  and  _192
REMARK   76  A    between atoms: _192  and  _193
REMARK   77  A    between atoms: _192  and  _195
REMARK   78  A    between atoms: _195  and  _196
REMARK   79  A    between atoms: _196  and  _197
REMARK   80  A    between atoms: _197  and  _198
REMARK   81  A    between atoms: _207  and  _209
REMARK   82  A    between atoms: _209  and  _210
REMARK   83  A    between atoms: _209  and  _212
REMARK   84  A    between atoms: _212  and  _213
REMARK   85  A    between atoms: _216  and  _218
REMARK   86  A    between atoms: _227  and  _230
REMARK   87  A    between atoms: _230  and  _231
REMARK   88  A    between atoms: _236  and  _237
REMARK   89  A    between atoms: _243  and  _245
REMARK   90  A    between atoms: _245  and  _246
REMARK   91  A    between atoms: _245  and  _248
REMARK   92  A    between atoms: _248  and  _249
REMARK   93  A    between atoms: _254  and  _256
REMARK   94  A    between atoms: _256  and  _257
REMARK   95  A    between atoms: _256  and  _259
REMARK   96  A    between atoms: _259  and  _260
REMARK   97  A    between atoms: _265  and  _266
REMARK   98  A    between atoms: _268  and  _270
REMARK   99  A    between atoms: _270  and  _271
REMARK  100  A    between atoms: _270  and  _273
REMARK  101  A    between atoms: _273  and  _274
REMARK  102  A    between atoms: _274  and  _275
REMARK  103  A    between atoms: _275  and  _276
REMARK  104  A    between atoms: _285  and  _287
REMARK  105  A    between atoms: _287  and  _288
REMARK  106  A    between atoms: _287  and  _290
REMARK  107  A    between atoms: _290  and  _291
REMARK  108  A    between atoms: _291  and  _292
REMARK  109  A    between atoms: _295  and  _297
REMARK  110  A    between atoms: _297  and  _298
REMARK  111  A    between atoms: _297  and  _300
REMARK  112  A    between atoms: _300  and  _301
REMARK  113  A    between atoms: _307  and  _309
REMARK  114  A    between atoms: _309  and  _310
REMARK  115  A    between atoms: _309  and  _312
REMARK  116  A    between atoms: _312  and  _313
REMARK  117  A    between atoms: _313  and  _314
REMARK  118  A    between atoms: _316  and  _318
REMARK  119  A    between atoms: _318  and  _319
REMARK  120  A    between atoms: _318  and  _321
REMARK  121  A    between atoms: _321  and  _322
REMARK  122  A    between atoms: _327  and  _329
REMARK  123  A    between atoms: _329  and  _330
REMARK  124  A    between atoms: _329  and  _332
REMARK  125  A    between atoms: _332  and  _333
REMARK  126  A    between atoms: _336  and  _338
REMARK  127  A    between atoms: _338  and  _339
REMARK  128  A    between atoms: _338  and  _341
REMARK  129  A    between atoms: _341  and  _342
REMARK  130  A    between atoms: _342  and  _343
REMARK  131  A    between atoms: _348  and  _350
REMARK  132  A    between atoms: _350  and  _351
REMARK  133  A    between atoms: _350  and  _353
REMARK  134  A    between atoms: _353  and  _354
REMARK  135  A    between atoms: _354  and  _355
REMARK  136  A    between atoms: _355  and  _356
REMARK  137  A    between atoms: _365  and  _367
REMARK  138  A    between atoms: _367  and  _368
REMARK  139  A    between atoms: _367  and  _370
REMARK  140  A    between atoms: _370  and  _371
REMARK  141  A    between atoms: _374  and  _376
REMARK  142  A    between atoms: _376  and  _377
REMARK  143  A    between atoms: _376  and  _379
REMARK  144  A    between atoms: _379  and  _380
REMARK  145  A    between atoms: _380  and  _381
REMARK  146  A    between atoms: _381  and  _382
REMARK                            x       y       z     vdW  Elec       q    Type
REMARK                         _______ _______ _______ _____ _____    ______ ____
ROOT
ATOM      1  O   HOH     1       8.499   5.515  14.102  0.00  0.00    +0.000 OA
ENDROOT
TORSDOF 0
REMARK  Name = ../refined-set-2016/2qx0/2qx0_pocket.pdb
REMARK  146 active torsions:
REMARK  status: ('A' for Active; 'I' for Inactive)
REMARK    1  A    between atoms: _1  and  _3
REMARK    2  A    between atoms: _3  and  _4
REMARK    3  A    between atoms: _7  and  _9
REMARK    4  A    between atoms: _9  and  _10
REMARK    5  A    between atoms: _9  and  _12
REMARK    6  A    between atoms: _12  and  _13
REMARK    7  A    between atoms: _16  and  _18
REMARK    8  A    between atoms: _18  and  _19
REMARK    9  A    between atoms: _21  and  _23
REMARK   10  A    between atoms: _23  and  _24
REMARK   11  A    between atoms: _23  and  _26
REMARK   12  A    between atoms: _26  and  _27
REMARK   13  A    between atoms: _29  and  _31
REMARK   14  A    between atoms: _31  and  _32
REMARK   15  A    between atoms: _31  and  _34
REMARK   16  A    between atoms: _34  and  _35
REMARK   17  A    between atoms: _40  and  _42
REMARK   18  A    between atoms: _42  and  _43
REMARK   19  A    between atoms: _42  and  _45
REMARK   20  A    between atoms: _45  and  _46
REMARK   21  A    between atoms: _51  and  _52
REMARK   22  A    between atoms: _54  and  _56
REMARK   23  A    between atoms: _56  and  _57
REMARK   24  A    between atoms: _56  and  _59
REMARK   25  A    between atoms: _59  and  _60
REMARK   26  A    between atoms: _60  and  _61
REMARK   27  A    between atoms: _61  and  _62
REMARK   28  A    between atoms: _71  and  _73
REMARK   29  A    between atoms: _73  and  _74
REMARK   30  A    between atoms: _73  and  _76
REMARK   31  A    between atoms: _76  and  _77
REMARK   32  A    between atoms: _80  and  _82
REMARK   33  A    between atoms: _82  and  _83
REMARK   34  A    between atoms: _82  and  _85
REMARK   35  A    between atoms: _85  and  _86
REMARK   36  A    between atoms: _86  and  _87
REMARK   37  A    between atoms: _87  and  _88
REMARK   38  A    between atoms: _88  and  _89
REMARK   39  A    between atoms: _94  and  _95
REMARK   40  A    between atoms: _100  and  _102
REMARK   41  A    between atoms: _102  and  _103
REMARK   42  A    between atoms: _102  and  _105
REMARK   43  A    between atoms: _105  and  _106
REMARK   44  A    between atoms: _109  and  _111
REMARK   45  A    between atoms: _111  and  _112
REMARK   46  A    between atoms: _114  and  _116
REMARK   47  A    between atoms: _116  and  _117
REMARK   48  A    between atoms: _116  and  _119
REMARK   49  A    between atoms: _119  and  _120
REMARK   50  A    between atoms: _120  and  _121
REMARK   51  A    between atoms: _127  and  _128
REMARK   52  A    between atoms: _133  and  _135
REMARK   53  A    between atoms: _135  and  _136
REMARK   54  A    between atoms: _135  and  _138
REMARK   55  A    between atoms: _138  and  _139
REMARK   56  A    between atoms: _142  and  _144
REMARK   57  A    between atoms: _144  and  _145
REMARK   58  A    between atoms: _144  and  _147
REMARK   59  A    between atoms: _147  and  _148
REMARK   60  A    between atoms: _154  and  _156
REMARK   61  A    between atoms: _156  and  _157
REMARK   62  A    between atoms: _156  and  _159
REMARK   63  A    between atoms: _159  and  _160
REMARK   64  A    between atoms: _163  and  _165
REMARK   65  A    between atoms: _165  and  _166
REMARK   66  A    between atoms: _165  and  _168
REMARK   67  A    between atoms: _168  and  _169
REMARK   68  A    between atoms: _174  and  _176
REMARK   69  A    between atoms: _176  and  _177
REMARK   70  A    between atoms: _180  and  _182
REMARK   71  A    between atoms: _182  and  _183
REMARK   72  A    between atoms: _182  and  _185
REMARK   73  A    between atoms: _185  and  _186
REMARK   74  A    between atoms: _186  and  _187
REMARK   75  A    between atoms: _190  and  _192
REMARK   76  A    between atoms: _192  and  _193
REMARK   77  A    between atoms: _192  and  _195
REMARK   78  A    between atoms: _195  and  _196
REMARK   79  A    between atoms: _196  and  _197
REMARK   80  A    between atoms: _197  and  _198
REMARK   81  A    between atoms: _207  and  _209
REMARK   82  A    between atoms: _209  and  _210
REMARK   83  A    between atoms: _209  and  _212
REMARK   84  A    between atoms: _212  and  _213
REMARK   85  A    between atoms: _216  and  _218
REMARK   86  A    between atoms: _227  and  _230
REMARK   87  A    between atoms: _230  and  _231
REMARK   88  A    between atoms: _236  and  _237
REMARK   89  A    between atoms: _243  and  _245
REMARK   90  A    between atoms: _245  and  _246
REMARK   91  A    between atoms: _245  and  _248
REMARK   92  A    between atoms: _248  and  _249
REMARK   93  A    between atoms: _254  and  _256
REMARK   94  A    between atoms: _256  and  _257
REMARK   95  A    between atoms: _256  and  _259
REMARK   96  A    between atoms: _259  and  _260
REMARK   97  A    between atoms: _265  and  _266
REMARK   98  A    between atoms: _268  and  _270
REMARK   99  A    between atoms: _270  and  _271
REMARK  100  A    between atoms: _270  and  _273
REMARK  101  A    between atoms: _273  and  _274
REMARK  102  A    between atoms: _274  and  _275
REMARK  103  A    between atoms: _275  and  _276
REMARK  104  A    between atoms: _285  and  _287
REMARK  105  A    between atoms: _287  and  _288
REMARK  106  A    between atoms: _287  and  _290
REMARK  107  A    between atoms: _290  and  _291
REMARK  108  A    between atoms: _291  and  _292
REMARK  109  A    between atoms: _295  and  _297
REMARK  110  A    between atoms: _297  and  _298
REMARK  111  A    between atoms: _297  and  _300
REMARK  112  A    between atoms: _300  and  _301
REMARK  113  A    between atoms: _307  and  _309
REMARK  114  A    between atoms: _309  and  _310
REMARK  115  A    between atoms: _309  and  _312
REMARK  116  A    between atoms: _312  and  _313
REMARK  117  A    between atoms: _313  and  _314
REMARK  118  A    between atoms: _316  and  _318
REMARK  119  A    between atoms: _318  and  _319
REMARK  120  A    between atoms: _318  and  _321
REMARK  121  A    between atoms: _321  and  _322
REMARK  122  A    between atoms: _327  and  _329
REMARK  123  A    between atoms: _329  and  _330
REMARK  124  A    between atoms: _329  and  _332
REMARK  125  A    between atoms: _332  and  _333
REMARK  126  A    between atoms: _336  and  _338
REMARK  127  A    between atoms: _338  and  _339
REMARK  128  A    between atoms: _338  and  _341
REMARK  129  A    between atoms: _341  and  _342
REMARK  130  A    between atoms: _342  and  _343
REMARK  131  A    between atoms: _348  and  _350
REMARK  132  A    between atoms: _350  and  _351
REMARK  133  A    between atoms: _350  and  _353
REMARK  134  A    between atoms: _353  and  _354
REMARK  135  A    between atoms: _354  and  _355
REMARK  136  A    between atoms: _355  and  _356
REMARK  137  A    between atoms: _365  and  _367
REMARK  138  A    between atoms: _367  and  _368
REMARK  139  A    between atoms: _367  and  _370
REMARK  140  A    between atoms: _370  and  _371
REMARK  141  A    between atoms: _374  and  _376
REMARK  142  A    between atoms: _376  and  _377
REMARK  143  A    between atoms: _376  and  _379
REMARK  144  A    between atoms: _379  and  _380
REMARK  145  A    between atoms: _380  and  _381
REMARK  146  A    between atoms: _381  and  _382
REMARK                            x       y       z     vdW  Elec       q    Type
REMARK                         _______ _______ _______ _____ _____    ______ ____
ROOT
ATOM      1  O   HOH     1       5.685   9.341   9.916  0.00  0.00    +0.000 OA
ENDROOT
TORSDOF 0
REMARK  Name = ../refined-set-2016/2qx0/2qx0_pocket.pdb
REMARK  146 active torsions:
REMARK  status: ('A' for Active; 'I' for Inactive)
REMARK    1  A    between atoms: _1  and  _3
REMARK    2  A    between atoms: _3  and  _4
REMARK    3  A    between atoms: _7  and  _9
REMARK    4  A    between atoms: _9  and  _10
REMARK    5  A    between atoms: _9  and  _12
REMARK    6  A    between atoms: _12  and  _13
REMARK    7  A    between atoms: _16  and  _18
REMARK    8  A    between atoms: _18  and  _19
REMARK    9  A    between atoms: _21  and  _23
REMARK   10  A    between atoms: _23  and  _24
REMARK   11  A    between atoms: _23  and  _26
REMARK   12  A    between atoms: _26  and  _27
REMARK   13  A    between atoms: _29  and  _31
REMARK   14  A    between atoms: _31  and  _32
REMARK   15  A    between atoms: _31  and  _34
REMARK   16  A    between atoms: _34  and  _35
REMARK   17  A    between atoms: _40  and  _42
REMARK   18  A    between atoms: _42  and  _43
REMARK   19  A    between atoms: _42  and  _45
REMARK   20  A    between atoms: _45  and  _46
REMARK   21  A    between atoms: _51  and  _52
REMARK   22  A    between atoms: _54  and  _56
REMARK   23  A    between atoms: _56  and  _57
REMARK   24  A    between atoms: _56  and  _59
REMARK   25  A    between atoms: _59  and  _60
REMARK   26  A    between atoms: _60  and  _61
REMARK   27  A    between atoms: _61  and  _62
REMARK   28  A    between atoms: _71  and  _73
REMARK   29  A    between atoms: _73  and  _74
REMARK   30  A    between atoms: _73  and  _76
REMARK   31  A    between atoms: _76  and  _77
REMARK   32  A    between atoms: _80  and  _82
REMARK   33  A    between atoms: _82  and  _83
REMARK   34  A    between atoms: _82  and  _85
REMARK   35  A    between atoms: _85  and  _86
REMARK   36  A    between atoms: _86  and  _87
REMARK   37  A    between atoms: _87  and  _88
REMARK   38  A    between atoms: _88  and  _89
REMARK   39  A    between atoms: _94  and  _95
REMARK   40  A    between atoms: _100  and  _102
REMARK   41  A    between atoms: _102  and  _103
REMARK   42  A    between atoms: _102  and  _105
REMARK   43  A    between atoms: _105  and  _106
REMARK   44  A    between atoms: _109  and  _111
REMARK   45  A    between atoms: _111  and  _112
REMARK   46  A    between atoms: _114  and  _116
REMARK   47  A    between atoms: _116  and  _117
REMARK   48  A    between atoms: _116  and  _119
REMARK   49  A    between atoms: _119  and  _120
REMARK   50  A    between atoms: _120  and  _121
REMARK   51  A    between atoms: _127  and  _128
REMARK   52  A    between atoms: _133  and  _135
REMARK   53  A    between atoms: _135  and  _136
REMARK   54  A    between atoms: _135  and  _138
REMARK   55  A    between atoms: _138  and  _139
REMARK   56  A    between atoms: _142  and  _144
REMARK   57  A    between atoms: _144  and  _145
REMARK   58  A    between atoms: _144  and  _147
REMARK   59  A    between atoms: _147  and  _148
REMARK   60  A    between atoms: _154  and  _156
REMARK   61  A    between atoms: _156  and  _157
REMARK   62  A    between atoms: _156  and  _159
REMARK   63  A    between atoms: _159  and  _160
REMARK   64  A    between atoms: _163  and  _165
REMARK   65  A    between atoms: _165  and  _166
REMARK   66  A    between atoms: _165  and  _168
REMARK   67  A    between atoms: _168  and  _169
REMARK   68  A    between atoms: _174  and  _176
REMARK   69  A    between atoms: _176  and  _177
REMARK   70  A    between atoms: _180  and  _182
REMARK   71  A    between atoms: _182  and  _183
REMARK   72  A    between atoms: _182  and  _185
REMARK   73  A    between atoms: _185  and  _186
REMARK   74  A    between atoms: _186  and  _187
REMARK   75  A    between atoms: _190  and  _192
REMARK   76  A    between atoms: _192  and  _193
REMARK   77  A    between atoms: _192  and  _195
REMARK   78  A    between atoms: _195  and  _196
REMARK   79  A    between atoms: _196  and  _197
REMARK   80  A    between atoms: _197  and  _198
REMARK   81  A    between atoms: _207  and  _209
REMARK   82  A    between atoms: _209  and  _210
REMARK   83  A    between atoms: _209  and  _212
REMARK   84  A    between atoms: _212  and  _213
REMARK   85  A    between atoms: _216  and  _218
REMARK   86  A    between atoms: _227  and  _230
REMARK   87  A    between atoms: _230  and  _231
REMARK   88  A    between atoms: _236  and  _237
REMARK   89  A    between atoms: _243  and  _245
REMARK   90  A    between atoms: _245  and  _246
REMARK   91  A    between atoms: _245  and  _248
REMARK   92  A    between atoms: _248  and  _249
REMARK   93  A    between atoms: _254  and  _256
REMARK   94  A    between atoms: _256  and  _257
REMARK   95  A    between atoms: _256  and  _259
REMARK   96  A    between atoms: _259  and  _260
REMARK   97  A    between atoms: _265  and  _266
REMARK   98  A    between atoms: _268  and  _270
REMARK   99  A    between atoms: _270  and  _271
REMARK  100  A    between atoms: _270  and  _273
REMARK  101  A    between atoms: _273  and  _274
REMARK  102  A    between atoms: _274  and  _275
REMARK  103  A    between atoms: _275  and  _276
REMARK  104  A    between atoms: _285  and  _287
REMARK  105  A    between atoms: _287  and  _288
REMARK  106  A    between atoms: _287  and  _290
REMARK  107  A    between atoms: _290  and  _291
REMARK  108  A    between atoms: _291  and  _292
REMARK  109  A    between atoms: _295  and  _297
REMARK  110  A    between atoms: _297  and  _298
REMARK  111  A    between atoms: _297  and  _300
REMARK  112  A    between atoms: _300  and  _301
REMARK  113  A    between atoms: _307  and  _309
REMARK  114  A    between atoms: _309  and  _310
REMARK  115  A    between atoms: _309  and  _312
REMARK  116  A    between atoms: _312  and  _313
REMARK  117  A    between atoms: _313  and  _314
REMARK  118  A    between atoms: _316  and  _318
REMARK  119  A    between atoms: _318  and  _319
REMARK  120  A    between atoms: _318  and  _321
REMARK  121  A    between atoms: _321  and  _322
REMARK  122  A    between atoms: _327  and  _329
REMARK  123  A    between atoms: _329  and  _330
REMARK  124  A    between atoms: _329  and  _332
REMARK  125  A    between atoms: _332  and  _333
REMARK  126  A    between atoms: _336  and  _338
REMARK  127  A    between atoms: _338  and  _339
REMARK  128  A    between atoms: _338  and  _341
REMARK  129  A    between atoms: _341  and  _342
REMARK  130  A    between atoms: _342  and  _343
REMARK  131  A    between atoms: _348  and  _350
REMARK  132  A    between atoms: _350  and  _351
REMARK  133  A    between atoms: _350  and  _353
REMARK  134  A    between atoms: _353  and  _354
REMARK  135  A    between atoms: _354  and  _355
REMARK  136  A    between atoms: _355  and  _356
REMARK  137  A    between atoms: _365  and  _367
REMARK  138  A    between atoms: _367  and  _368
REMARK  139  A    between atoms: _367  and  _370
REMARK  140  A    between atoms: _370  and  _371
REMARK  141  A    between atoms: _374  and  _376
REMARK  142  A    between atoms: _376  and  _377
REMARK  143  A    between atoms: _376  and  _379
REMARK  144  A    between atoms: _379  and  _380
REMARK  145  A    between atoms: _380  and  _381
REMARK  146  A    between atoms: _381  and  _382
REMARK                            x       y       z     vdW  Elec       q    Type
REMARK                         _______ _______ _______ _____ _____    ______ ____
ROOT
ATOM      1  O   HOH     1       4.375   3.409  11.595  0.00  0.00    +0.000 OA
ENDROOT
TORSDOF 0
REMARK  Name = ../refined-set-2016/2qx0/2qx0_pocket.pdb
REMARK  146 active torsions:
REMARK  status: ('A' for Active; 'I' for Inactive)
REMARK    1  A    between atoms: _1  and  _3
REMARK    2  A    between atoms: _3  and  _4
REMARK    3  A    between atoms: _7  and  _9
REMARK    4  A    between atoms: _9  and  _10
REMARK    5  A    between atoms: _9  and  _12
REMARK    6  A    between atoms: _12  and  _13
REMARK    7  A    between atoms: _16  and  _18
REMARK    8  A    between atoms: _18  and  _19
REMARK    9  A    between atoms: _21  and  _23
REMARK   10  A    between atoms: _23  and  _24
REMARK   11  A    between atoms: _23  and  _26
REMARK   12  A    between atoms: _26  and  _27
REMARK   13  A    between atoms: _29  and  _31
REMARK   14  A    between atoms: _31  and  _32
REMARK   15  A    between atoms: _31  and  _34
REMARK   16  A    between atoms: _34  and  _35
REMARK   17  A    between atoms: _40  and  _42
REMARK   18  A    between atoms: _42  and  _43
REMARK   19  A    between atoms: _42  and  _45
REMARK   20  A    between atoms: _45  and  _46
REMARK   21  A    between atoms: _51  and  _52
REMARK   22  A    between atoms: _54  and  _56
REMARK   23  A    between atoms: _56  and  _57
REMARK   24  A    between atoms: _56  and  _59
REMARK   25  A    between atoms: _59  and  _60
REMARK   26  A    between atoms: _60  and  _61
REMARK   27  A    between atoms: _61  and  _62
REMARK   28  A    between atoms: _71  and  _73
REMARK   29  A    between atoms: _73  and  _74
REMARK   30  A    between atoms: _73  and  _76
REMARK   31  A    between atoms: _76  and  _77
REMARK   32  A    between atoms: _80  and  _82
REMARK   33  A    between atoms: _82  and  _83
REMARK   34  A    between atoms: _82  and  _85
REMARK   35  A    between atoms: _85  and  _86
REMARK   36  A    between atoms: _86  and  _87
REMARK   37  A    between atoms: _87  and  _88
REMARK   38  A    between atoms: _88  and  _89
REMARK   39  A    between atoms: _94  and  _95
REMARK   40  A    between atoms: _100  and  _102
REMARK   41  A    between atoms: _102  and  _103
REMARK   42  A    between atoms: _102  and  _105
REMARK   43  A    between atoms: _105  and  _106
REMARK   44  A    between atoms: _109  and  _111
REMARK   45  A    between atoms: _111  and  _112
REMARK   46  A    between atoms: _114  and  _116
REMARK   47  A    between atoms: _116  and  _117
REMARK   48  A    between atoms: _116  and  _119
REMARK   49  A    between atoms: _119  and  _120
REMARK   50  A    between atoms: _120  and  _121
REMARK   51  A    between atoms: _127  and  _128
REMARK   52  A    between atoms: _133  and  _135
REMARK   53  A    between atoms: _135  and  _136
REMARK   54  A    between atoms: _135  and  _138
REMARK   55  A    between atoms: _138  and  _139
REMARK   56  A    between atoms: _142  and  _144
REMARK   57  A    between atoms: _144  and  _145
REMARK   58  A    between atoms: _144  and  _147
REMARK   59  A    between atoms: _147  and  _148
REMARK   60  A    between atoms: _154  and  _156
REMARK   61  A    between atoms: _156  and  _157
REMARK   62  A    between atoms: _156  and  _159
REMARK   63  A    between atoms: _159  and  _160
REMARK   64  A    between atoms: _163  and  _165
REMARK   65  A    between atoms: _165  and  _166
REMARK   66  A    between atoms: _165  and  _168
REMARK   67  A    between atoms: _168  and  _169
REMARK   68  A    between atoms: _174  and  _176
REMARK   69  A    between atoms: _176  and  _177
REMARK   70  A    between atoms: _180  and  _182
REMARK   71  A    between atoms: _182  and  _183
REMARK   72  A    between atoms: _182  and  _185
REMARK   73  A    between atoms: _185  and  _186
REMARK   74  A    between atoms: _186  and  _187
REMARK   75  A    between atoms: _190  and  _192
REMARK   76  A    between atoms: _192  and  _193
REMARK   77  A    between atoms: _192  and  _195
REMARK   78  A    between atoms: _195  and  _196
REMARK   79  A    between atoms: _196  and  _197
REMARK   80  A    between atoms: _197  and  _198
REMARK   81  A    between atoms: _207  and  _209
REMARK   82  A    between atoms: _209  and  _210
REMARK   83  A    between atoms: _209  and  _212
REMARK   84  A    between atoms: _212  and  _213
REMARK   85  A    between atoms: _216  and  _218
REMARK   86  A    between atoms: _227  and  _230
REMARK   87  A    between atoms: _230  and  _231
REMARK   88  A    between atoms: _236  and  _237
REMARK   89  A    between atoms: _243  and  _245
REMARK   90  A    between atoms: _245  and  _246
REMARK   91  A    between atoms: _245  and  _248
REMARK   92  A    between atoms: _248  and  _249
REMARK   93  A    between atoms: _254  and  _256
REMARK   94  A    between atoms: _256  and  _257
REMARK   95  A    between atoms: _256  and  _259
REMARK   96  A    between atoms: _259  and  _260
REMARK   97  A    between atoms: _265  and  _266
REMARK   98  A    between atoms: _268  and  _270
REMARK   99  A    between atoms: _270  and  _271
REMARK  100  A    between atoms: _270  and  _273
REMARK  101  A    between atoms: _273  and  _274
REMARK  102  A    between atoms: _274  and  _275
REMARK  103  A    between atoms: _275  and  _276
REMARK  104  A    between atoms: _285  and  _287
REMARK  105  A    between atoms: _287  and  _288
REMARK  106  A    between atoms: _287  and  _290
REMARK  107  A    between atoms: _290  and  _291
REMARK  108  A    between atoms: _291  and  _292
REMARK  109  A    between atoms: _295  and  _297
REMARK  110  A    between atoms: _297  and  _298
REMARK  111  A    between atoms: _297  and  _300
REMARK  112  A    between atoms: _300  and  _301
REMARK  113  A    between atoms: _307  and  _309
REMARK  114  A    between atoms: _309  and  _310
REMARK  115  A    between atoms: _309  and  _312
REMARK  116  A    between atoms: _312  and  _313
REMARK  117  A    between atoms: _313  and  _314
REMARK  118  A    between atoms: _316  and  _318
REMARK  119  A    between atoms: _318  and  _319
REMARK  120  A    between atoms: _318  and  _321
REMARK  121  A    between atoms: _321  and  _322
REMARK  122  A    between atoms: _327  and  _329
REMARK  123  A    between atoms: _329  and  _330
REMARK  124  A    between atoms: _329  and  _332
REMARK  125  A    between atoms: _332  and  _333
REMARK  126  A    between atoms: _336  and  _338
REMARK  127  A    between atoms: _338  and  _339
REMARK  128  A    between atoms: _338  and  _341
REMARK  129  A    between atoms: _341  and  _342
REMARK  130  A    between atoms: _342  and  _343
REMARK  131  A    between atoms: _348  and  _350
REMARK  132  A    between atoms: _350  and  _351
REMARK  133  A    between atoms: _350  and  _353
REMARK  134  A    between atoms: _353  and  _354
REMARK  135  A    between atoms: _354  and  _355
REMARK  136  A    between atoms: _355  and  _356
REMARK  137  A    between atoms: _365  and  _367
REMARK  138  A    between atoms: _367  and  _368
REMARK  139  A    between atoms: _367  and  _370
REMARK  140  A    between atoms: _370  and  _371
REMARK  141  A    between atoms: _374  and  _376
REMARK  142  A    between atoms: _376  and  _377
REMARK  143  A    between atoms: _376  and  _379
REMARK  144  A    between atoms: _379  and  _380
REMARK  145  A    between atoms: _380  and  _381
REMARK  146  A    between atoms: _381  and  _382
REMARK                            x       y       z     vdW  Elec       q    Type
REMARK                         _______ _______ _______ _____ _____    ______ ____
ROOT
ATOM      1  O   HOH     1       6.168  15.552  -0.774  0.00  0.00    +0.000 OA
ENDROOT
TORSDOF 0
REMARK  Name = ../refined-set-2016/2qx0/2qx0_pocket.pdb
REMARK  146 active torsions:
REMARK  status: ('A' for Active; 'I' for Inactive)
REMARK    1  A    between atoms: _1  and  _3
REMARK    2  A    between atoms: _3  and  _4
REMARK    3  A    between atoms: _7  and  _9
REMARK    4  A    between atoms: _9  and  _10
REMARK    5  A    between atoms: _9  and  _12
REMARK    6  A    between atoms: _12  and  _13
REMARK    7  A    between atoms: _16  and  _18
REMARK    8  A    between atoms: _18  and  _19
REMARK    9  A    between atoms: _21  and  _23
REMARK   10  A    between atoms: _23  and  _24
REMARK   11  A    between atoms: _23  and  _26
REMARK   12  A    between atoms: _26  and  _27
REMARK   13  A    between atoms: _29  and  _31
REMARK   14  A    between atoms: _31  and  _32
REMARK   15  A    between atoms: _31  and  _34
REMARK   16  A    between atoms: _34  and  _35
REMARK   17  A    between atoms: _40  and  _42
REMARK   18  A    between atoms: _42  and  _43
REMARK   19  A    between atoms: _42  and  _45
REMARK   20  A    between atoms: _45  and  _46
REMARK   21  A    between atoms: _51  and  _52
REMARK   22  A    between atoms: _54  and  _56
REMARK   23  A    between atoms: _56  and  _57
REMARK   24  A    between atoms: _56  and  _59
REMARK   25  A    between atoms: _59  and  _60
REMARK   26  A    between atoms: _60  and  _61
REMARK   27  A    between atoms: _61  and  _62
REMARK   28  A    between atoms: _71  and  _73
REMARK   29  A    between atoms: _73  and  _74
REMARK   30  A    between atoms: _73  and  _76
REMARK   31  A    between atoms: _76  and  _77
REMARK   32  A    between atoms: _80  and  _82
REMARK   33  A    between atoms: _82  and  _83
REMARK   34  A    between atoms: _82  and  _85
REMARK   35  A    between atoms: _85  and  _86
REMARK   36  A    between atoms: _86  and  _87
REMARK   37  A    between atoms: _87  and  _88
REMARK   38  A    between atoms: _88  and  _89
REMARK   39  A    between atoms: _94  and  _95
REMARK   40  A    between atoms: _100  and  _102
REMARK   41  A    between atoms: _102  and  _103
REMARK   42  A    between atoms: _102  and  _105
REMARK   43  A    between atoms: _105  and  _106
REMARK   44  A    between atoms: _109  and  _111
REMARK   45  A    between atoms: _111  and  _112
REMARK   46  A    between atoms: _114  and  _116
REMARK   47  A    between atoms: _116  and  _117
REMARK   48  A    between atoms: _116  and  _119
REMARK   49  A    between atoms: _119  and  _120
REMARK   50  A    between atoms: _120  and  _121
REMARK   51  A    between atoms: _127  and  _128
REMARK   52  A    between atoms: _133  and  _135
REMARK   53  A    between atoms: _135  and  _136
REMARK   54  A    between atoms: _135  and  _138
REMARK   55  A    between atoms: _138  and  _139
REMARK   56  A    between atoms: _142  and  _144
REMARK   57  A    between atoms: _144  and  _145
REMARK   58  A    between atoms: _144  and  _147
REMARK   59  A    between atoms: _147  and  _148
REMARK   60  A    between atoms: _154  and  _156
REMARK   61  A    between atoms: _156  and  _157
REMARK   62  A    between atoms: _156  and  _159
REMARK   63  A    between atoms: _159  and  _160
REMARK   64  A    between atoms: _163  and  _165
REMARK   65  A    between atoms: _165  and  _166
REMARK   66  A    between atoms: _165  and  _168
REMARK   67  A    between atoms: _168  and  _169
REMARK   68  A    between atoms: _174  and  _176
REMARK   69  A    between atoms: _176  and  _177
REMARK   70  A    between atoms: _180  and  _182
REMARK   71  A    between atoms: _182  and  _183
REMARK   72  A    between atoms: _182  and  _185
REMARK   73  A    between atoms: _185  and  _186
REMARK   74  A    between atoms: _186  and  _187
REMARK   75  A    between atoms: _190  and  _192
REMARK   76  A    between atoms: _192  and  _193
REMARK   77  A    between atoms: _192  and  _195
REMARK   78  A    between atoms: _195  and  _196
REMARK   79  A    between atoms: _196  and  _197
REMARK   80  A    between atoms: _197  and  _198
REMARK   81  A    between atoms: _207  and  _209
REMARK   82  A    between atoms: _209  and  _210
REMARK   83  A    between atoms: _209  and  _212
REMARK   84  A    between atoms: _212  and  _213
REMARK   85  A    between atoms: _216  and  _218
REMARK   86  A    between atoms: _227  and  _230
REMARK   87  A    between atoms: _230  and  _231
REMARK   88  A    between atoms: _236  and  _237
REMARK   89  A    between atoms: _243  and  _245
REMARK   90  A    between atoms: _245  and  _246
REMARK   91  A    between atoms: _245  and  _248
REMARK   92  A    between atoms: _248  and  _249
REMARK   93  A    between atoms: _254  and  _256
REMARK   94  A    between atoms: _256  and  _257
REMARK   95  A    between atoms: _256  and  _259
REMARK   96  A    between atoms: _259  and  _260
REMARK   97  A    between atoms: _265  and  _266
REMARK   98  A    between atoms: _268  and  _270
REMARK   99  A    between atoms: _270  and  _271
REMARK  100  A    between atoms: _270  and  _273
REMARK  101  A    between atoms: _273  and  _274
REMARK  102  A    between atoms: _274  and  _275
REMARK  103  A    between atoms: _275  and  _276
REMARK  104  A    between atoms: _285  and  _287
REMARK  105  A    between atoms: _287  and  _288
REMARK  106  A    between atoms: _287  and  _290
REMARK  107  A    between atoms: _290  and  _291
REMARK  108  A    between atoms: _291  and  _292
REMARK  109  A    between atoms: _295  and  _297
REMARK  110  A    between atoms: _297  and  _298
REMARK  111  A    between atoms: _297  and  _300
REMARK  112  A    between atoms: _300  and  _301
REMARK  113  A    between atoms: _307  and  _309
REMARK  114  A    between atoms: _309  and  _310
REMARK  115  A    between atoms: _309  and  _312
REMARK  116  A    between atoms: _312  and  _313
REMARK  117  A    between atoms: _313  and  _314
REMARK  118  A    between atoms: _316  and  _318
REMARK  119  A    between atoms: _318  and  _319
REMARK  120  A    between atoms: _318  and  _321
REMARK  121  A    between atoms: _321  and  _322
REMARK  122  A    between atoms: _327  and  _329
REMARK  123  A    between atoms: _329  and  _330
REMARK  124  A    between atoms: _329  and  _332
REMARK  125  A    between atoms: _332  and  _333
REMARK  126  A    between atoms: _336  and  _338
REMARK  127  A    between atoms: _338  and  _339
REMARK  128  A    between atoms: _338  and  _341
REMARK  129  A    between atoms: _341  and  _342
REMARK  130  A    between atoms: _342  and  _343
REMARK  131  A    between atoms: _348  and  _350
REMARK  132  A    between atoms: _350  and  _351
REMARK  133  A    between atoms: _350  and  _353
REMARK  134  A    between atoms: _353  and  _354
REMARK  135  A    between atoms: _354  and  _355
REMARK  136  A    between atoms: _355  and  _356
REMARK  137  A    between atoms: _365  and  _367
REMARK  138  A    between atoms: _367  and  _368
REMARK  139  A    between atoms: _367  and  _370
REMARK  140  A    between atoms: _370  and  _371
REMARK  141  A    between atoms: _374  and  _376
REMARK  142  A    between atoms: _376  and  _377
REMARK  143  A    between atoms: _376  and  _379
REMARK  144  A    between atoms: _379  and  _380
REMARK  145  A    between atoms: _380  and  _381
REMARK  146  A    between atoms: _381  and  _382
REMARK                            x       y       z     vdW  Elec       q    Type
REMARK                         _______ _______ _______ _____ _____    ______ ____
ROOT
ATOM      1  O   HOH     1       6.399   6.061   9.873  0.00  0.00    +0.000 OA
ENDROOT
TORSDOF 0
REMARK  Name = ../refined-set-2016/2qx0/2qx0_pocket.pdb
REMARK  146 active torsions:
REMARK  status: ('A' for Active; 'I' for Inactive)
REMARK    1  A    between atoms: _1  and  _3
REMARK    2  A    between atoms: _3  and  _4
REMARK    3  A    between atoms: _7  and  _9
REMARK    4  A    between atoms: _9  and  _10
REMARK    5  A    between atoms: _9  and  _12
REMARK    6  A    between atoms: _12  and  _13
REMARK    7  A    between atoms: _16  and  _18
REMARK    8  A    between atoms: _18  and  _19
REMARK    9  A    between atoms: _21  and  _23
REMARK   10  A    between atoms: _23  and  _24
REMARK   11  A    between atoms: _23  and  _26
REMARK   12  A    between atoms: _26  and  _27
REMARK   13  A    between atoms: _29  and  _31
REMARK   14  A    between atoms: _31  and  _32
REMARK   15  A    between atoms: _31  and  _34
REMARK   16  A    between atoms: _34  and  _35
REMARK   17  A    between atoms: _40  and  _42
REMARK   18  A    between atoms: _42  and  _43
REMARK   19  A    between atoms: _42  and  _45
REMARK   20  A    between atoms: _45  and  _46
REMARK   21  A    between atoms: _51  and  _52
REMARK   22  A    between atoms: _54  and  _56
REMARK   23  A    between atoms: _56  and  _57
REMARK   24  A    between atoms: _56  and  _59
REMARK   25  A    between atoms: _59  and  _60
REMARK   26  A    between atoms: _60  and  _61
REMARK   27  A    between atoms: _61  and  _62
REMARK   28  A    between atoms: _71  and  _73
REMARK   29  A    between atoms: _73  and  _74
REMARK   30  A    between atoms: _73  and  _76
REMARK   31  A    between atoms: _76  and  _77
REMARK   32  A    between atoms: _80  and  _82
REMARK   33  A    between atoms: _82  and  _83
REMARK   34  A    between atoms: _82  and  _85
REMARK   35  A    between atoms: _85  and  _86
REMARK   36  A    between atoms: _86  and  _87
REMARK   37  A    between atoms: _87  and  _88
REMARK   38  A    between atoms: _88  and  _89
REMARK   39  A    between atoms: _94  and  _95
REMARK   40  A    between atoms: _100  and  _102
REMARK   41  A    between atoms: _102  and  _103
REMARK   42  A    between atoms: _102  and  _105
REMARK   43  A    between atoms: _105  and  _106
REMARK   44  A    between atoms: _109  and  _111
REMARK   45  A    between atoms: _111  and  _112
REMARK   46  A    between atoms: _114  and  _116
REMARK   47  A    between atoms: _116  and  _117
REMARK   48  A    between atoms: _116  and  _119
REMARK   49  A    between atoms: _119  and  _120
REMARK   50  A    between atoms: _120  and  _121
REMARK   51  A    between atoms: _127  and  _128
REMARK   52  A    between atoms: _133  and  _135
REMARK   53  A    between atoms: _135  and  _136
REMARK   54  A    between atoms: _135  and  _138
REMARK   55  A    between atoms: _138  and  _139
REMARK   56  A    between atoms: _142  and  _144
REMARK   57  A    between atoms: _144  and  _145
REMARK   58  A    between atoms: _144  and  _147
REMARK   59  A    between atoms: _147  and  _148
REMARK   60  A    between atoms: _154  and  _156
REMARK   61  A    between atoms: _156  and  _157
REMARK   62  A    between atoms: _156  and  _159
REMARK   63  A    between atoms: _159  and  _160
REMARK   64  A    between atoms: _163  and  _165
REMARK   65  A    between atoms: _165  and  _166
REMARK   66  A    between atoms: _165  and  _168
REMARK   67  A    between atoms: _168  and  _169
REMARK   68  A    between atoms: _174  and  _176
REMARK   69  A    between atoms: _176  and  _177
REMARK   70  A    between atoms: _180  and  _182
REMARK   71  A    between atoms: _182  and  _183
REMARK   72  A    between atoms: _182  and  _185
REMARK   73  A    between atoms: _185  and  _186
REMARK   74  A    between atoms: _186  and  _187
REMARK   75  A    between atoms: _190  and  _192
REMARK   76  A    between atoms: _192  and  _193
REMARK   77  A    between atoms: _192  and  _195
REMARK   78  A    between atoms: _195  and  _196
REMARK   79  A    between atoms: _196  and  _197
REMARK   80  A    between atoms: _197  and  _198
REMARK   81  A    between atoms: _207  and  _209
REMARK   82  A    between atoms: _209  and  _210
REMARK   83  A    between atoms: _209  and  _212
REMARK   84  A    between atoms: _212  and  _213
REMARK   85  A    between atoms: _216  and  _218
REMARK   86  A    between atoms: _227  and  _230
REMARK   87  A    between atoms: _230  and  _231
REMARK   88  A    between atoms: _236  and  _237
REMARK   89  A    between atoms: _243  and  _245
REMARK   90  A    between atoms: _245  and  _246
REMARK   91  A    between atoms: _245  and  _248
REMARK   92  A    between atoms: _248  and  _249
REMARK   93  A    between atoms: _254  and  _256
REMARK   94  A    between atoms: _256  and  _257
REMARK   95  A    between atoms: _256  and  _259
REMARK   96  A    between atoms: _259  and  _260
REMARK   97  A    between atoms: _265  and  _266
REMARK   98  A    between atoms: _268  and  _270
REMARK   99  A    between atoms: _270  and  _271
REMARK  100  A    between atoms: _270  and  _273
REMARK  101  A    between atoms: _273  and  _274
REMARK  102  A    between atoms: _274  and  _275
REMARK  103  A    between atoms: _275  and  _276
REMARK  104  A    between atoms: _285  and  _287
REMARK  105  A    between atoms: _287  and  _288
REMARK  106  A    between atoms: _287  and  _290
REMARK  107  A    between atoms: _290  and  _291
REMARK  108  A    between atoms: _291  and  _292
REMARK  109  A    between atoms: _295  and  _297
REMARK  110  A    between atoms: _297  and  _298
REMARK  111  A    between atoms: _297  and  _300
REMARK  112  A    between atoms: _300  and  _301
REMARK  113  A    between atoms: _307  and  _309
REMARK  114  A    between atoms: _309  and  _310
REMARK  115  A    between atoms: _309  and  _312
REMARK  116  A    between atoms: _312  and  _313
REMARK  117  A    between atoms: _313  and  _314
REMARK  118  A    between atoms: _316  and  _318
REMARK  119  A    between atoms: _318  and  _319
REMARK  120  A    between atoms: _318  and  _321
REMARK  121  A    between atoms: _321  and  _322
REMARK  122  A    between atoms: _327  and  _329
REMARK  123  A    between atoms: _329  and  _330
REMARK  124  A    between atoms: _329  and  _332
REMARK  125  A    between atoms: _332  and  _333
REMARK  126  A    between atoms: _336  and  _338
REMARK  127  A    between atoms: _338  and  _339
REMARK  128  A    between atoms: _338  and  _341
REMARK  129  A    between atoms: _341  and  _342
REMARK  130  A    between atoms: _342  and  _343
REMARK  131  A    between atoms: _348  and  _350
REMARK  132  A    between atoms: _350  and  _351
REMARK  133  A    between atoms: _350  and  _353
REMARK  134  A    between atoms: _353  and  _354
REMARK  135  A    between atoms: _354  and  _355
REMARK  136  A    between atoms: _355  and  _356
REMARK  137  A    between atoms: _365  and  _367
REMARK  138  A    between atoms: _367  and  _368
REMARK  139  A    between atoms: _367  and  _370
REMARK  140  A    between atoms: _370  and  _371
REMARK  141  A    between atoms: _374  and  _376
REMARK  142  A    between atoms: _376  and  _377
REMARK  143  A    between atoms: _376  and  _379
REMARK  144  A    between atoms: _379  and  _380
REMARK  145  A    between atoms: _380  and  _381
REMARK  146  A    between atoms: _381  and  _382
REMARK                            x       y       z     vdW  Elec       q    Type
REMARK                         _______ _______ _______ _____ _____    ______ ____
ROOT
ATOM      1  O   HOH     1       3.088  15.916   9.859  0.00  0.00    +0.000 OA
ENDROOT
TORSDOF 0
REMARK  Name = ../refined-set-2016/2qx0/2qx0_pocket.pdb
REMARK  146 active torsions:
REMARK  status: ('A' for Active; 'I' for Inactive)
REMARK    1  A    between atoms: _1  and  _3
REMARK    2  A    between atoms: _3  and  _4
REMARK    3  A    between atoms: _7  and  _9
REMARK    4  A    between atoms: _9  and  _10
REMARK    5  A    between atoms: _9  and  _12
REMARK    6  A    between atoms: _12  and  _13
REMARK    7  A    between atoms: _16  and  _18
REMARK    8  A    between atoms: _18  and  _19
REMARK    9  A    between atoms: _21  and  _23
REMARK   10  A    between atoms: _23  and  _24
REMARK   11  A    between atoms: _23  and  _26
REMARK   12  A    between atoms: _26  and  _27
REMARK   13  A    between atoms: _29  and  _31
REMARK   14  A    between atoms: _31  and  _32
REMARK   15  A    between atoms: _31  and  _34
REMARK   16  A    between atoms: _34  and  _35
REMARK   17  A    between atoms: _40  and  _42
REMARK   18  A    between atoms: _42  and  _43
REMARK   19  A    between atoms: _42  and  _45
REMARK   20  A    between atoms: _45  and  _46
REMARK   21  A    between atoms: _51  and  _52
REMARK   22  A    between atoms: _54  and  _56
REMARK   23  A    between atoms: _56  and  _57
REMARK   24  A    between atoms: _56  and  _59
REMARK   25  A    between atoms: _59  and  _60
REMARK   26  A    between atoms: _60  and  _61
REMARK   27  A    between atoms: _61  and  _62
REMARK   28  A    between atoms: _71  and  _73
REMARK   29  A    between atoms: _73  and  _74
REMARK   30  A    between atoms: _73  and  _76
REMARK   31  A    between atoms: _76  and  _77
REMARK   32  A    between atoms: _80  and  _82
REMARK   33  A    between atoms: _82  and  _83
REMARK   34  A    between atoms: _82  and  _85
REMARK   35  A    between atoms: _85  and  _86
REMARK   36  A    between atoms: _86  and  _87
REMARK   37  A    between atoms: _87  and  _88
REMARK   38  A    between atoms: _88  and  _89
REMARK   39  A    between atoms: _94  and  _95
REMARK   40  A    between atoms: _100  and  _102
REMARK   41  A    between atoms: _102  and  _103
REMARK   42  A    between atoms: _102  and  _105
REMARK   43  A    between atoms: _105  and  _106
REMARK   44  A    between atoms: _109  and  _111
REMARK   45  A    between atoms: _111  and  _112
REMARK   46  A    between atoms: _114  and  _116
REMARK   47  A    between atoms: _116  and  _117
REMARK   48  A    between atoms: _116  and  _119
REMARK   49  A    between atoms: _119  and  _120
REMARK   50  A    between atoms: _120  and  _121
REMARK   51  A    between atoms: _127  and  _128
REMARK   52  A    between atoms: _133  and  _135
REMARK   53  A    between atoms: _135  and  _136
REMARK   54  A    between atoms: _135  and  _138
REMARK   55  A    between atoms: _138  and  _139
REMARK   56  A    between atoms: _142  and  _144
REMARK   57  A    between atoms: _144  and  _145
REMARK   58  A    between atoms: _144  and  _147
REMARK   59  A    between atoms: _147  and  _148
REMARK   60  A    between atoms: _154  and  _156
REMARK   61  A    between atoms: _156  and  _157
REMARK   62  A    between atoms: _156  and  _159
REMARK   63  A    between atoms: _159  and  _160
REMARK   64  A    between atoms: _163  and  _165
REMARK   65  A    between atoms: _165  and  _166
REMARK   66  A    between atoms: _165  and  _168
REMARK   67  A    between atoms: _168  and  _169
REMARK   68  A    between atoms: _174  and  _176
REMARK   69  A    between atoms: _176  and  _177
REMARK   70  A    between atoms: _180  and  _182
REMARK   71  A    between atoms: _182  and  _183
REMARK   72  A    between atoms: _182  and  _185
REMARK   73  A    between atoms: _185  and  _186
REMARK   74  A    between atoms: _186  and  _187
REMARK   75  A    between atoms: _190  and  _192
REMARK   76  A    between atoms: _192  and  _193
REMARK   77  A    between atoms: _192  and  _195
REMARK   78  A    between atoms: _195  and  _196
REMARK   79  A    between atoms: _196  and  _197
REMARK   80  A    between atoms: _197  and  _198
REMARK   81  A    between atoms: _207  and  _209
REMARK   82  A    between atoms: _209  and  _210
REMARK   83  A    between atoms: _209  and  _212
REMARK   84  A    between atoms: _212  and  _213
REMARK   85  A    between atoms: _216  and  _218
REMARK   86  A    between atoms: _227  and  _230
REMARK   87  A    between atoms: _230  and  _231
REMARK   88  A    between atoms: _236  and  _237
REMARK   89  A    between atoms: _243  and  _245
REMARK   90  A    between atoms: _245  and  _246
REMARK   91  A    between atoms: _245  and  _248
REMARK   92  A    between atoms: _248  and  _249
REMARK   93  A    between atoms: _254  and  _256
REMARK   94  A    between atoms: _256  and  _257
REMARK   95  A    between atoms: _256  and  _259
REMARK   96  A    between atoms: _259  and  _260
REMARK   97  A    between atoms: _265  and  _266
REMARK   98  A    between atoms: _268  and  _270
REMARK   99  A    between atoms: _270  and  _271
REMARK  100  A    between atoms: _270  and  _273
REMARK  101  A    between atoms: _273  and  _274
REMARK  102  A    between atoms: _274  and  _275
REMARK  103  A    between atoms: _275  and  _276
REMARK  104  A    between atoms: _285  and  _287
REMARK  105  A    between atoms: _287  and  _288
REMARK  106  A    between atoms: _287  and  _290
REMARK  107  A    between atoms: _290  and  _291
REMARK  108  A    between atoms: _291  and  _292
REMARK  109  A    between atoms: _295  and  _297
REMARK  110  A    between atoms: _297  and  _298
REMARK  111  A    between atoms: _297  and  _300
REMARK  112  A    between atoms: _300  and  _301
REMARK  113  A    between atoms: _307  and  _309
REMARK  114  A    between atoms: _309  and  _310
REMARK  115  A    between atoms: _309  and  _312
REMARK  116  A    between atoms: _312  and  _313
REMARK  117  A    between atoms: _313  and  _314
REMARK  118  A    between atoms: _316  and  _318
REMARK  119  A    between atoms: _318  and  _319
REMARK  120  A    between atoms: _318  and  _321
REMARK  121  A    between atoms: _321  and  _322
REMARK  122  A    between atoms: _327  and  _329
REMARK  123  A    between atoms: _329  and  _330
REMARK  124  A    between atoms: _329  and  _332
REMARK  125  A    between atoms: _332  and  _333
REMARK  126  A    between atoms: _336  and  _338
REMARK  127  A    between atoms: _338  and  _339
REMARK  128  A    between atoms: _338  and  _341
REMARK  129  A    between atoms: _341  and  _342
REMARK  130  A    between atoms: _342  and  _343
REMARK  131  A    between atoms: _348  and  _350
REMARK  132  A    between atoms: _350  and  _351
REMARK  133  A    between atoms: _350  and  _353
REMARK  134  A    between atoms: _353  and  _354
REMARK  135  A    between atoms: _354  and  _355
REMARK  136  A    between atoms: _355  and  _356
REMARK  137  A    between atoms: _365  and  _367
REMARK  138  A    between atoms: _367  and  _368
REMARK  139  A    between atoms: _367  and  _370
REMARK  140  A    between atoms: _370  and  _371
REMARK  141  A    between atoms: _374  and  _376
REMARK  142  A    between atoms: _376  and  _377
REMARK  143  A    between atoms: _376  and  _379
REMARK  144  A    between atoms: _379  and  _380
REMARK  145  A    between atoms: _380  and  _381
REMARK  146  A    between atoms: _381  and  _382
REMARK                            x       y       z     vdW  Elec       q    Type
REMARK                         _______ _______ _______ _____ _____    ______ ____
ROOT
ATOM      1  O   HOH     1       4.548   5.122  15.947  0.00  0.00    +0.000 OA
ENDROOT
TORSDOF 0
REMARK  Name = ../refined-set-2016/2qx0/2qx0_pocket.pdb
REMARK  146 active torsions:
REMARK  status: ('A' for Active; 'I' for Inactive)
REMARK    1  A    between atoms: _1  and  _3
REMARK    2  A    between atoms: _3  and  _4
REMARK    3  A    between atoms: _7  and  _9
REMARK    4  A    between atoms: _9  and  _10
REMARK    5  A    between atoms: _9  and  _12
REMARK    6  A    between atoms: _12  and  _13
REMARK    7  A    between atoms: _16  and  _18
REMARK    8  A    between atoms: _18  and  _19
REMARK    9  A    between atoms: _21  and  _23
REMARK   10  A    between atoms: _23  and  _24
REMARK   11  A    between atoms: _23  and  _26
REMARK   12  A    between atoms: _26  and  _27
REMARK   13  A    between atoms: _29  and  _31
REMARK   14  A    between atoms: _31  and  _32
REMARK   15  A    between atoms: _31  and  _34
REMARK   16  A    between atoms: _34  and  _35
REMARK   17  A    between atoms: _40  and  _42
REMARK   18  A    between atoms: _42  and  _43
REMARK   19  A    between atoms: _42  and  _45
REMARK   20  A    between atoms: _45  and  _46
REMARK   21  A    between atoms: _51  and  _52
REMARK   22  A    between atoms: _54  and  _56
REMARK   23  A    between atoms: _56  and  _57
REMARK   24  A    between atoms: _56  and  _59
REMARK   25  A    between atoms: _59  and  _60
REMARK   26  A    between atoms: _60  and  _61
REMARK   27  A    between atoms: _61  and  _62
REMARK   28  A    between atoms: _71  and  _73
REMARK   29  A    between atoms: _73  and  _74
REMARK   30  A    between atoms: _73  and  _76
REMARK   31  A    between atoms: _76  and  _77
REMARK   32  A    between atoms: _80  and  _82
REMARK   33  A    between atoms: _82  and  _83
REMARK   34  A    between atoms: _82  and  _85
REMARK   35  A    between atoms: _85  and  _86
REMARK   36  A    between atoms: _86  and  _87
REMARK   37  A    between atoms: _87  and  _88
REMARK   38  A    between atoms: _88  and  _89
REMARK   39  A    between atoms: _94  and  _95
REMARK   40  A    between atoms: _100  and  _102
REMARK   41  A    between atoms: _102  and  _103
REMARK   42  A    between atoms: _102  and  _105
REMARK   43  A    between atoms: _105  and  _106
REMARK   44  A    between atoms: _109  and  _111
REMARK   45  A    between atoms: _111  and  _112
REMARK   46  A    between atoms: _114  and  _116
REMARK   47  A    between atoms: _116  and  _117
REMARK   48  A    between atoms: _116  and  _119
REMARK   49  A    between atoms: _119  and  _120
REMARK   50  A    between atoms: _120  and  _121
REMARK   51  A    between atoms: _127  and  _128
REMARK   52  A    between atoms: _133  and  _135
REMARK   53  A    between atoms: _135  and  _136
REMARK   54  A    between atoms: _135  and  _138
REMARK   55  A    between atoms: _138  and  _139
REMARK   56  A    between atoms: _142  and  _144
REMARK   57  A    between atoms: _144  and  _145
REMARK   58  A    between atoms: _144  and  _147
REMARK   59  A    between atoms: _147  and  _148
REMARK   60  A    between atoms: _154  and  _156
REMARK   61  A    between atoms: _156  and  _157
REMARK   62  A    between atoms: _156  and  _159
REMARK   63  A    between atoms: _159  and  _160
REMARK   64  A    between atoms: _163  and  _165
REMARK   65  A    between atoms: _165  and  _166
REMARK   66  A    between atoms: _165  and  _168
REMARK   67  A    between atoms: _168  and  _169
REMARK   68  A    between atoms: _174  and  _176
REMARK   69  A    between atoms: _176  and  _177
REMARK   70  A    between atoms: _180  and  _182
REMARK   71  A    between atoms: _182  and  _183
REMARK   72  A    between atoms: _182  and  _185
REMARK   73  A    between atoms: _185  and  _186
REMARK   74  A    between atoms: _186  and  _187
REMARK   75  A    between atoms: _190  and  _192
REMARK   76  A    between atoms: _192  and  _193
REMARK   77  A    between atoms: _192  and  _195
REMARK   78  A    between atoms: _195  and  _196
REMARK   79  A    between atoms: _196  and  _197
REMARK   80  A    between atoms: _197  and  _198
REMARK   81  A    between atoms: _207  and  _209
REMARK   82  A    between atoms: _209  and  _210
REMARK   83  A    between atoms: _209  and  _212
REMARK   84  A    between atoms: _212  and  _213
REMARK   85  A    between atoms: _216  and  _218
REMARK   86  A    between atoms: _227  and  _230
REMARK   87  A    between atoms: _230  and  _231
REMARK   88  A    between atoms: _236  and  _237
REMARK   89  A    between atoms: _243  and  _245
REMARK   90  A    between atoms: _245  and  _246
REMARK   91  A    between atoms: _245  and  _248
REMARK   92  A    between atoms: _248  and  _249
REMARK   93  A    between atoms: _254  and  _256
REMARK   94  A    between atoms: _256  and  _257
REMARK   95  A    between atoms: _256  and  _259
REMARK   96  A    between atoms: _259  and  _260
REMARK   97  A    between atoms: _265  and  _266
REMARK   98  A    between atoms: _268  and  _270
REMARK   99  A    between atoms: _270  and  _271
REMARK  100  A    between atoms: _270  and  _273
REMARK  101  A    between atoms: _273  and  _274
REMARK  102  A    between atoms: _274  and  _275
REMARK  103  A    between atoms: _275  and  _276
REMARK  104  A    between atoms: _285  and  _287
REMARK  105  A    between atoms: _287  and  _288
REMARK  106  A    between atoms: _287  and  _290
REMARK  107  A    between atoms: _290  and  _291
REMARK  108  A    between atoms: _291  and  _292
REMARK  109  A    between atoms: _295  and  _297
REMARK  110  A    between atoms: _297  and  _298
REMARK  111  A    between atoms: _297  and  _300
REMARK  112  A    between atoms: _300  and  _301
REMARK  113  A    between atoms: _307  and  _309
REMARK  114  A    between atoms: _309  and  _310
REMARK  115  A    between atoms: _309  and  _312
REMARK  116  A    between atoms: _312  and  _313
REMARK  117  A    between atoms: _313  and  _314
REMARK  118  A    between atoms: _316  and  _318
REMARK  119  A    between atoms: _318  and  _319
REMARK  120  A    between atoms: _318  and  _321
REMARK  121  A    between atoms: _321  and  _322
REMARK  122  A    between atoms: _327  and  _329
REMARK  123  A    between atoms: _329  and  _330
REMARK  124  A    between atoms: _329  and  _332
REMARK  125  A    between atoms: _332  and  _333
REMARK  126  A    between atoms: _336  and  _338
REMARK  127  A    between atoms: _338  and  _339
REMARK  128  A    between atoms: _338  and  _341
REMARK  129  A    between atoms: _341  and  _342
REMARK  130  A    between atoms: _342  and  _343
REMARK  131  A    between atoms: _348  and  _350
REMARK  132  A    between atoms: _350  and  _351
REMARK  133  A    between atoms: _350  and  _353
REMARK  134  A    between atoms: _353  and  _354
REMARK  135  A    between atoms: _354  and  _355
REMARK  136  A    between atoms: _355  and  _356
REMARK  137  A    between atoms: _365  and  _367
REMARK  138  A    between atoms: _367  and  _368
REMARK  139  A    between atoms: _367  and  _370
REMARK  140  A    between atoms: _370  and  _371
REMARK  141  A    between atoms: _374  and  _376
REMARK  142  A    between atoms: _376  and  _377
REMARK  143  A    between atoms: _376  and  _379
REMARK  144  A    between atoms: _379  and  _380
REMARK  145  A    between atoms: _380  and  _381
REMARK  146  A    between atoms: _381  and  _382
REMARK                            x       y       z     vdW  Elec       q    Type
REMARK                         _______ _______ _______ _____ _____    ______ ____
ROOT
ATOM      1  O   HOH     1       1.424   8.495  14.006  0.00  0.00    +0.000 OA
ENDROOT
TORSDOF 0
REMARK  Name = ../refined-set-2016/2qx0/2qx0_pocket.pdb
REMARK  146 active torsions:
REMARK  status: ('A' for Active; 'I' for Inactive)
REMARK    1  A    between atoms: _1  and  _3
REMARK    2  A    between atoms: _3  and  _4
REMARK    3  A    between atoms: _7  and  _9
REMARK    4  A    between atoms: _9  and  _10
REMARK    5  A    between atoms: _9  and  _12
REMARK    6  A    between atoms: _12  and  _13
REMARK    7  A    between atoms: _16  and  _18
REMARK    8  A    between atoms: _18  and  _19
REMARK    9  A    between atoms: _21  and  _23
REMARK   10  A    between atoms: _23  and  _24
REMARK   11  A    between atoms: _23  and  _26
REMARK   12  A    between atoms: _26  and  _27
REMARK   13  A    between atoms: _29  and  _31
REMARK   14  A    between atoms: _31  and  _32
REMARK   15  A    between atoms: _31  and  _34
REMARK   16  A    between atoms: _34  and  _35
REMARK   17  A    between atoms: _40  and  _42
REMARK   18  A    between atoms: _42  and  _43
REMARK   19  A    between atoms: _42  and  _45
REMARK   20  A    between atoms: _45  and  _46
REMARK   21  A    between atoms: _51  and  _52
REMARK   22  A    between atoms: _54  and  _56
REMARK   23  A    between atoms: _56  and  _57
REMARK   24  A    between atoms: _56  and  _59
REMARK   25  A    between atoms: _59  and  _60
REMARK   26  A    between atoms: _60  and  _61
REMARK   27  A    between atoms: _61  and  _62
REMARK   28  A    between atoms: _71  and  _73
REMARK   29  A    between atoms: _73  and  _74
REMARK   30  A    between atoms: _73  and  _76
REMARK   31  A    between atoms: _76  and  _77
REMARK   32  A    between atoms: _80  and  _82
REMARK   33  A    between atoms: _82  and  _83
REMARK   34  A    between atoms: _82  and  _85
REMARK   35  A    between atoms: _85  and  _86
REMARK   36  A    between atoms: _86  and  _87
REMARK   37  A    between atoms: _87  and  _88
REMARK   38  A    between atoms: _88  and  _89
REMARK   39  A    between atoms: _94  and  _95
REMARK   40  A    between atoms: _100  and  _102
REMARK   41  A    between atoms: _102  and  _103
REMARK   42  A    between atoms: _102  and  _105
REMARK   43  A    between atoms: _105  and  _106
REMARK   44  A    between atoms: _109  and  _111
REMARK   45  A    between atoms: _111  and  _112
REMARK   46  A    between atoms: _114  and  _116
REMARK   47  A    between atoms: _116  and  _117
REMARK   48  A    between atoms: _116  and  _119
REMARK   49  A    between atoms: _119  and  _120
REMARK   50  A    between atoms: _120  and  _121
REMARK   51  A    between atoms: _127  and  _128
REMARK   52  A    between atoms: _133  and  _135
REMARK   53  A    between atoms: _135  and  _136
REMARK   54  A    between atoms: _135  and  _138
REMARK   55  A    between atoms: _138  and  _139
REMARK   56  A    between atoms: _142  and  _144
REMARK   57  A    between atoms: _144  and  _145
REMARK   58  A    between atoms: _144  and  _147
REMARK   59  A    between atoms: _147  and  _148
REMARK   60  A    between atoms: _154  and  _156
REMARK   61  A    between atoms: _156  and  _157
REMARK   62  A    between atoms: _156  and  _159
REMARK   63  A    between atoms: _159  and  _160
REMARK   64  A    between atoms: _163  and  _165
REMARK   65  A    between atoms: _165  and  _166
REMARK   66  A    between atoms: _165  and  _168
REMARK   67  A    between atoms: _168  and  _169
REMARK   68  A    between atoms: _174  and  _176
REMARK   69  A    between atoms: _176  and  _177
REMARK   70  A    between atoms: _180  and  _182
REMARK   71  A    between atoms: _182  and  _183
REMARK   72  A    between atoms: _182  and  _185
REMARK   73  A    between atoms: _185  and  _186
REMARK   74  A    between atoms: _186  and  _187
REMARK   75  A    between atoms: _190  and  _192
REMARK   76  A    between atoms: _192  and  _193
REMARK   77  A    between atoms: _192  and  _195
REMARK   78  A    between atoms: _195  and  _196
REMARK   79  A    between atoms: _196  and  _197
REMARK   80  A    between atoms: _197  and  _198
REMARK   81  A    between atoms: _207  and  _209
REMARK   82  A    between atoms: _209  and  _210
REMARK   83  A    between atoms: _209  and  _212
REMARK   84  A    between atoms: _212  and  _213
REMARK   85  A    between atoms: _216  and  _218
REMARK   86  A    between atoms: _227  and  _230
REMARK   87  A    between atoms: _230  and  _231
REMARK   88  A    between atoms: _236  and  _237
REMARK   89  A    between atoms: _243  and  _245
REMARK   90  A    between atoms: _245  and  _246
REMARK   91  A    between atoms: _245  and  _248
REMARK   92  A    between atoms: _248  and  _249
REMARK   93  A    between atoms: _254  and  _256
REMARK   94  A    between atoms: _256  and  _257
REMARK   95  A    between atoms: _256  and  _259
REMARK   96  A    between atoms: _259  and  _260
REMARK   97  A    between atoms: _265  and  _266
REMARK   98  A    between atoms: _268  and  _270
REMARK   99  A    between atoms: _270  and  _271
REMARK  100  A    between atoms: _270  and  _273
REMARK  101  A    between atoms: _273  and  _274
REMARK  102  A    between atoms: _274  and  _275
REMARK  103  A    between atoms: _275  and  _276
REMARK  104  A    between atoms: _285  and  _287
REMARK  105  A    between atoms: _287  and  _288
REMARK  106  A    between atoms: _287  and  _290
REMARK  107  A    between atoms: _290  and  _291
REMARK  108  A    between atoms: _291  and  _292
REMARK  109  A    between atoms: _295  and  _297
REMARK  110  A    between atoms: _297  and  _298
REMARK  111  A    between atoms: _297  and  _300
REMARK  112  A    between atoms: _300  and  _301
REMARK  113  A    between atoms: _307  and  _309
REMARK  114  A    between atoms: _309  and  _310
REMARK  115  A    between atoms: _309  and  _312
REMARK  116  A    between atoms: _312  and  _313
REMARK  117  A    between atoms: _313  and  _314
REMARK  118  A    between atoms: _316  and  _318
REMARK  119  A    between atoms: _318  and  _319
REMARK  120  A    between atoms: _318  and  _321
REMARK  121  A    between atoms: _321  and  _322
REMARK  122  A    between atoms: _327  and  _329
REMARK  123  A    between atoms: _329  and  _330
REMARK  124  A    between atoms: _329  and  _332
REMARK  125  A    between atoms: _332  and  _333
REMARK  126  A    between atoms: _336  and  _338
REMARK  127  A    between atoms: _338  and  _339
REMARK  128  A    between atoms: _338  and  _341
REMARK  129  A    between atoms: _341  and  _342
REMARK  130  A    between atoms: _342  and  _343
REMARK  131  A    between atoms: _348  and  _350
REMARK  132  A    between atoms: _350  and  _351
REMARK  133  A    between atoms: _350  and  _353
REMARK  134  A    between atoms: _353  and  _354
REMARK  135  A    between atoms: _354  and  _355
REMARK  136  A    between atoms: _355  and  _356
REMARK  137  A    between atoms: _365  and  _367
REMARK  138  A    between atoms: _367  and  _368
REMARK  139  A    between atoms: _367  and  _370
REMARK  140  A    between atoms: _370  and  _371
REMARK  141  A    between atoms: _374  and  _376
REMARK  142  A    between atoms: _376  and  _377
REMARK  143  A    between atoms: _376  and  _379
REMARK  144  A    between atoms: _379  and  _380
REMARK  145  A    between atoms: _380  and  _381
REMARK  146  A    between atoms: _381  and  _382
REMARK                            x       y       z     vdW  Elec       q    Type
REMARK                         _______ _______ _______ _____ _____    ______ ____
ROOT
ATOM      1  O   HOH     1       5.332   1.093  13.899  0.00  0.00    +0.000 OA
ENDROOT
TORSDOF 0
REMARK  Name = ../refined-set-2016/2qx0/2qx0_pocket.pdb
REMARK  146 active torsions:
REMARK  status: ('A' for Active; 'I' for Inactive)
REMARK    1  A    between atoms: _1  and  _3
REMARK    2  A    between atoms: _3  and  _4
REMARK    3  A    between atoms: _7  and  _9
REMARK    4  A    between atoms: _9  and  _10
REMARK    5  A    between atoms: _9  and  _12
REMARK    6  A    between atoms: _12  and  _13
REMARK    7  A    between atoms: _16  and  _18
REMARK    8  A    between atoms: _18  and  _19
REMARK    9  A    between atoms: _21  and  _23
REMARK   10  A    between atoms: _23  and  _24
REMARK   11  A    between atoms: _23  and  _26
REMARK   12  A    between atoms: _26  and  _27
REMARK   13  A    between atoms: _29  and  _31
REMARK   14  A    between atoms: _31  and  _32
REMARK   15  A    between atoms: _31  and  _34
REMARK   16  A    between atoms: _34  and  _35
REMARK   17  A    between atoms: _40  and  _42
REMARK   18  A    between atoms: _42  and  _43
REMARK   19  A    between atoms: _42  and  _45
REMARK   20  A    between atoms: _45  and  _46
REMARK   21  A    between atoms: _51  and  _52
REMARK   22  A    between atoms: _54  and  _56
REMARK   23  A    between atoms: _56  and  _57
REMARK   24  A    between atoms: _56  and  _59
REMARK   25  A    between atoms: _59  and  _60
REMARK   26  A    between atoms: _60  and  _61
REMARK   27  A    between atoms: _61  and  _62
REMARK   28  A    between atoms: _71  and  _73
REMARK   29  A    between atoms: _73  and  _74
REMARK   30  A    between atoms: _73  and  _76
REMARK   31  A    between atoms: _76  and  _77
REMARK   32  A    between atoms: _80  and  _82
REMARK   33  A    between atoms: _82  and  _83
REMARK   34  A    between atoms: _82  and  _85
REMARK   35  A    between atoms: _85  and  _86
REMARK   36  A    between atoms: _86  and  _87
REMARK   37  A    between atoms: _87  and  _88
REMARK   38  A    between atoms: _88  and  _89
REMARK   39  A    between atoms: _94  and  _95
REMARK   40  A    between atoms: _100  and  _102
REMARK   41  A    between atoms: _102  and  _103
REMARK   42  A    between atoms: _102  and  _105
REMARK   43  A    between atoms: _105  and  _106
REMARK   44  A    between atoms: _109  and  _111
REMARK   45  A    between atoms: _111  and  _112
REMARK   46  A    between atoms: _114  and  _116
REMARK   47  A    between atoms: _116  and  _117
REMARK   48  A    between atoms: _116  and  _119
REMARK   49  A    between atoms: _119  and  _120
REMARK   50  A    between atoms: _120  and  _121
REMARK   51  A    between atoms: _127  and  _128
REMARK   52  A    between atoms: _133  and  _135
REMARK   53  A    between atoms: _135  and  _136
REMARK   54  A    between atoms: _135  and  _138
REMARK   55  A    between atoms: _138  and  _139
REMARK   56  A    between atoms: _142  and  _144
REMARK   57  A    between atoms: _144  and  _145
REMARK   58  A    between atoms: _144  and  _147
REMARK   59  A    between atoms: _147  and  _148
REMARK   60  A    between atoms: _154  and  _156
REMARK   61  A    between atoms: _156  and  _157
REMARK   62  A    between atoms: _156  and  _159
REMARK   63  A    between atoms: _159  and  _160
REMARK   64  A    between atoms: _163  and  _165
REMARK   65  A    between atoms: _165  and  _166
REMARK   66  A    between atoms: _165  and  _168
REMARK   67  A    between atoms: _168  and  _169
REMARK   68  A    between atoms: _174  and  _176
REMARK   69  A    between atoms: _176  and  _177
REMARK   70  A    between atoms: _180  and  _182
REMARK   71  A    between atoms: _182  and  _183
REMARK   72  A    between atoms: _182  and  _185
REMARK   73  A    between atoms: _185  and  _186
REMARK   74  A    between atoms: _186  and  _187
REMARK   75  A    between atoms: _190  and  _192
REMARK   76  A    between atoms: _192  and  _193
REMARK   77  A    between atoms: _192  and  _195
REMARK   78  A    between atoms: _195  and  _196
REMARK   79  A    between atoms: _196  and  _197
REMARK   80  A    between atoms: _197  and  _198
REMARK   81  A    between atoms: _207  and  _209
REMARK   82  A    between atoms: _209  and  _210
REMARK   83  A    between atoms: _209  and  _212
REMARK   84  A    between atoms: _212  and  _213
REMARK   85  A    between atoms: _216  and  _218
REMARK   86  A    between atoms: _227  and  _230
REMARK   87  A    between atoms: _230  and  _231
REMARK   88  A    between atoms: _236  and  _237
REMARK   89  A    between atoms: _243  and  _245
REMARK   90  A    between atoms: _245  and  _246
REMARK   91  A    between atoms: _245  and  _248
REMARK   92  A    between atoms: _248  and  _249
REMARK   93  A    between atoms: _254  and  _256
REMARK   94  A    between atoms: _256  and  _257
REMARK   95  A    between atoms: _256  and  _259
REMARK   96  A    between atoms: _259  and  _260
REMARK   97  A    between atoms: _265  and  _266
REMARK   98  A    between atoms: _268  and  _270
REMARK   99  A    between atoms: _270  and  _271
REMARK  100  A    between atoms: _270  and  _273
REMARK  101  A    between atoms: _273  and  _274
REMARK  102  A    between atoms: _274  and  _275
REMARK  103  A    between atoms: _275  and  _276
REMARK  104  A    between atoms: _285  and  _287
REMARK  105  A    between atoms: _287  and  _288
REMARK  106  A    between atoms: _287  and  _290
REMARK  107  A    between atoms: _290  and  _291
REMARK  108  A    between atoms: _291  and  _292
REMARK  109  A    between atoms: _295  and  _297
REMARK  110  A    between atoms: _297  and  _298
REMARK  111  A    between atoms: _297  and  _300
REMARK  112  A    between atoms: _300  and  _301
REMARK  113  A    between atoms: _307  and  _309
REMARK  114  A    between atoms: _309  and  _310
REMARK  115  A    between atoms: _309  and  _312
REMARK  116  A    between atoms: _312  and  _313
REMARK  117  A    between atoms: _313  and  _314
REMARK  118  A    between atoms: _316  and  _318
REMARK  119  A    between atoms: _318  and  _319
REMARK  120  A    between atoms: _318  and  _321
REMARK  121  A    between atoms: _321  and  _322
REMARK  122  A    between atoms: _327  and  _329
REMARK  123  A    between atoms: _329  and  _330
REMARK  124  A    between atoms: _329  and  _332
REMARK  125  A    between atoms: _332  and  _333
REMARK  126  A    between atoms: _336  and  _338
REMARK  127  A    between atoms: _338  and  _339
REMARK  128  A    between atoms: _338  and  _341
REMARK  129  A    between atoms: _341  and  _342
REMARK  130  A    between atoms: _342  and  _343
REMARK  131  A    between atoms: _348  and  _350
REMARK  132  A    between atoms: _350  and  _351
REMARK  133  A    between atoms: _350  and  _353
REMARK  134  A    between atoms: _353  and  _354
REMARK  135  A    between atoms: _354  and  _355
REMARK  136  A    between atoms: _355  and  _356
REMARK  137  A    between atoms: _365  and  _367
REMARK  138  A    between atoms: _367  and  _368
REMARK  139  A    between atoms: _367  and  _370
REMARK  140  A    between atoms: _370  and  _371
REMARK  141  A    between atoms: _374  and  _376
REMARK  142  A    between atoms: _376  and  _377
REMARK  143  A    between atoms: _376  and  _379
REMARK  144  A    between atoms: _379  and  _380
REMARK  145  A    between atoms: _380  and  _381
REMARK  146  A    between atoms: _381  and  _382
REMARK                            x       y       z     vdW  Elec       q    Type
REMARK                         _______ _______ _______ _____ _____    ______ ____
ROOT
ATOM      1  O   HOH     1       3.910   5.946  12.138  0.00  0.00    +0.000 OA
ENDROOT
TORSDOF 0
REMARK  Name = ../refined-set-2016/2qx0/2qx0_pocket.pdb
REMARK  146 active torsions:
REMARK  status: ('A' for Active; 'I' for Inactive)
REMARK    1  A    between atoms: _1  and  _3
REMARK    2  A    between atoms: _3  and  _4
REMARK    3  A    between atoms: _7  and  _9
REMARK    4  A    between atoms: _9  and  _10
REMARK    5  A    between atoms: _9  and  _12
REMARK    6  A    between atoms: _12  and  _13
REMARK    7  A    between atoms: _16  and  _18
REMARK    8  A    between atoms: _18  and  _19
REMARK    9  A    between atoms: _21  and  _23
REMARK   10  A    between atoms: _23  and  _24
REMARK   11  A    between atoms: _23  and  _26
REMARK   12  A    between atoms: _26  and  _27
REMARK   13  A    between atoms: _29  and  _31
REMARK   14  A    between atoms: _31  and  _32
REMARK   15  A    between atoms: _31  and  _34
REMARK   16  A    between atoms: _34  and  _35
REMARK   17  A    between atoms: _40  and  _42
REMARK   18  A    between atoms: _42  and  _43
REMARK   19  A    between atoms: _42  and  _45
REMARK   20  A    between atoms: _45  and  _46
REMARK   21  A    between atoms: _51  and  _52
REMARK   22  A    between atoms: _54  and  _56
REMARK   23  A    between atoms: _56  and  _57
REMARK   24  A    between atoms: _56  and  _59
REMARK   25  A    between atoms: _59  and  _60
REMARK   26  A    between atoms: _60  and  _61
REMARK   27  A    between atoms: _61  and  _62
REMARK   28  A    between atoms: _71  and  _73
REMARK   29  A    between atoms: _73  and  _74
REMARK   30  A    between atoms: _73  and  _76
REMARK   31  A    between atoms: _76  and  _77
REMARK   32  A    between atoms: _80  and  _82
REMARK   33  A    between atoms: _82  and  _83
REMARK   34  A    between atoms: _82  and  _85
REMARK   35  A    between atoms: _85  and  _86
REMARK   36  A    between atoms: _86  and  _87
REMARK   37  A    between atoms: _87  and  _88
REMARK   38  A    between atoms: _88  and  _89
REMARK   39  A    between atoms: _94  and  _95
REMARK   40  A    between atoms: _100  and  _102
REMARK   41  A    between atoms: _102  and  _103
REMARK   42  A    between atoms: _102  and  _105
REMARK   43  A    between atoms: _105  and  _106
REMARK   44  A    between atoms: _109  and  _111
REMARK   45  A    between atoms: _111  and  _112
REMARK   46  A    between atoms: _114  and  _116
REMARK   47  A    between atoms: _116  and  _117
REMARK   48  A    between atoms: _116  and  _119
REMARK   49  A    between atoms: _119  and  _120
REMARK   50  A    between atoms: _120  and  _121
REMARK   51  A    between atoms: _127  and  _128
REMARK   52  A    between atoms: _133  and  _135
REMARK   53  A    between atoms: _135  and  _136
REMARK   54  A    between atoms: _135  and  _138
REMARK   55  A    between atoms: _138  and  _139
REMARK   56  A    between atoms: _142  and  _144
REMARK   57  A    between atoms: _144  and  _145
REMARK   58  A    between atoms: _144  and  _147
REMARK   59  A    between atoms: _147  and  _148
REMARK   60  A    between atoms: _154  and  _156
REMARK   61  A    between atoms: _156  and  _157
REMARK   62  A    between atoms: _156  and  _159
REMARK   63  A    between atoms: _159  and  _160
REMARK   64  A    between atoms: _163  and  _165
REMARK   65  A    between atoms: _165  and  _166
REMARK   66  A    between atoms: _165  and  _168
REMARK   67  A    between atoms: _168  and  _169
REMARK   68  A    between atoms: _174  and  _176
REMARK   69  A    between atoms: _176  and  _177
REMARK   70  A    between atoms: _180  and  _182
REMARK   71  A    between atoms: _182  and  _183
REMARK   72  A    between atoms: _182  and  _185
REMARK   73  A    between atoms: _185  and  _186
REMARK   74  A    between atoms: _186  and  _187
REMARK   75  A    between atoms: _190  and  _192
REMARK   76  A    between atoms: _192  and  _193
REMARK   77  A    between atoms: _192  and  _195
REMARK   78  A    between atoms: _195  and  _196
REMARK   79  A    between atoms: _196  and  _197
REMARK   80  A    between atoms: _197  and  _198
REMARK   81  A    between atoms: _207  and  _209
REMARK   82  A    between atoms: _209  and  _210
REMARK   83  A    between atoms: _209  and  _212
REMARK   84  A    between atoms: _212  and  _213
REMARK   85  A    between atoms: _216  and  _218
REMARK   86  A    between atoms: _227  and  _230
REMARK   87  A    between atoms: _230  and  _231
REMARK   88  A    between atoms: _236  and  _237
REMARK   89  A    between atoms: _243  and  _245
REMARK   90  A    between atoms: _245  and  _246
REMARK   91  A    between atoms: _245  and  _248
REMARK   92  A    between atoms: _248  and  _249
REMARK   93  A    between atoms: _254  and  _256
REMARK   94  A    between atoms: _256  and  _257
REMARK   95  A    between atoms: _256  and  _259
REMARK   96  A    between atoms: _259  and  _260
REMARK   97  A    between atoms: _265  and  _266
REMARK   98  A    between atoms: _268  and  _270
REMARK   99  A    between atoms: _270  and  _271
REMARK  100  A    between atoms: _270  and  _273
REMARK  101  A    between atoms: _273  and  _274
REMARK  102  A    between atoms: _274  and  _275
REMARK  103  A    between atoms: _275  and  _276
REMARK  104  A    between atoms: _285  and  _287
REMARK  105  A    between atoms: _287  and  _288
REMARK  106  A    between atoms: _287  and  _290
REMARK  107  A    between atoms: _290  and  _291
REMARK  108  A    between atoms: _291  and  _292
REMARK  109  A    between atoms: _295  and  _297
REMARK  110  A    between atoms: _297  and  _298
REMARK  111  A    between atoms: _297  and  _300
REMARK  112  A    between atoms: _300  and  _301
REMARK  113  A    between atoms: _307  and  _309
REMARK  114  A    between atoms: _309  and  _310
REMARK  115  A    between atoms: _309  and  _312
REMARK  116  A    between atoms: _312  and  _313
REMARK  117  A    between atoms: _313  and  _314
REMARK  118  A    between atoms: _316  and  _318
REMARK  119  A    between atoms: _318  and  _319
REMARK  120  A    between atoms: _318  and  _321
REMARK  121  A    between atoms: _321  and  _322
REMARK  122  A    between atoms: _327  and  _329
REMARK  123  A    between atoms: _329  and  _330
REMARK  124  A    between atoms: _329  and  _332
REMARK  125  A    between atoms: _332  and  _333
REMARK  126  A    between atoms: _336  and  _338
REMARK  127  A    between atoms: _338  and  _339
REMARK  128  A    between atoms: _338  and  _341
REMARK  129  A    between atoms: _341  and  _342
REMARK  130  A    between atoms: _342  and  _343
REMARK  131  A    between atoms: _348  and  _350
REMARK  132  A    between atoms: _350  and  _351
REMARK  133  A    between atoms: _350  and  _353
REMARK  134  A    between atoms: _353  and  _354
REMARK  135  A    between atoms: _354  and  _355
REMARK  136  A    between atoms: _355  and  _356
REMARK  137  A    between atoms: _365  and  _367
REMARK  138  A    between atoms: _367  and  _368
REMARK  139  A    between atoms: _367  and  _370
REMARK  140  A    between atoms: _370  and  _371
REMARK  141  A    between atoms: _374  and  _376
REMARK  142  A    between atoms: _376  and  _377
REMARK  143  A    between atoms: _376  and  _379
REMARK  144  A    between atoms: _379  and  _380
REMARK  145  A    between atoms: _380  and  _381
REMARK  146  A    between atoms: _381  and  _382
REMARK                            x       y       z     vdW  Elec       q    Type
REMARK                         _______ _______ _______ _____ _____    ______ ____
ROOT
ATOM      1  O   HOH     1       6.040   3.728  14.398  0.00  0.00    +0.000 OA
ENDROOT
TORSDOF 0
REMARK  Name = ../refined-set-2016/2qx0/2qx0_pocket.pdb
REMARK  146 active torsions:
REMARK  status: ('A' for Active; 'I' for Inactive)
REMARK    1  A    between atoms: _1  and  _3
REMARK    2  A    between atoms: _3  and  _4
REMARK    3  A    between atoms: _7  and  _9
REMARK    4  A    between atoms: _9  and  _10
REMARK    5  A    between atoms: _9  and  _12
REMARK    6  A    between atoms: _12  and  _13
REMARK    7  A    between atoms: _16  and  _18
REMARK    8  A    between atoms: _18  and  _19
REMARK    9  A    between atoms: _21  and  _23
REMARK   10  A    between atoms: _23  and  _24
REMARK   11  A    between atoms: _23  and  _26
REMARK   12  A    between atoms: _26  and  _27
REMARK   13  A    between atoms: _29  and  _31
REMARK   14  A    between atoms: _31  and  _32
REMARK   15  A    between atoms: _31  and  _34
REMARK   16  A    between atoms: _34  and  _35
REMARK   17  A    between atoms: _40  and  _42
REMARK   18  A    between atoms: _42  and  _43
REMARK   19  A    between atoms: _42  and  _45
REMARK   20  A    between atoms: _45  and  _46
REMARK   21  A    between atoms: _51  and  _52
REMARK   22  A    between atoms: _54  and  _56
REMARK   23  A    between atoms: _56  and  _57
REMARK   24  A    between atoms: _56  and  _59
REMARK   25  A    between atoms: _59  and  _60
REMARK   26  A    between atoms: _60  and  _61
REMARK   27  A    between atoms: _61  and  _62
REMARK   28  A    between atoms: _71  and  _73
REMARK   29  A    between atoms: _73  and  _74
REMARK   30  A    between atoms: _73  and  _76
REMARK   31  A    between atoms: _76  and  _77
REMARK   32  A    between atoms: _80  and  _82
REMARK   33  A    between atoms: _82  and  _83
REMARK   34  A    between atoms: _82  and  _85
REMARK   35  A    between atoms: _85  and  _86
REMARK   36  A    between atoms: _86  and  _87
REMARK   37  A    between atoms: _87  and  _88
REMARK   38  A    between atoms: _88  and  _89
REMARK   39  A    between atoms: _94  and  _95
REMARK   40  A    between atoms: _100  and  _102
REMARK   41  A    between atoms: _102  and  _103
REMARK   42  A    between atoms: _102  and  _105
REMARK   43  A    between atoms: _105  and  _106
REMARK   44  A    between atoms: _109  and  _111
REMARK   45  A    between atoms: _111  and  _112
REMARK   46  A    between atoms: _114  and  _116
REMARK   47  A    between atoms: _116  and  _117
REMARK   48  A    between atoms: _116  and  _119
REMARK   49  A    between atoms: _119  and  _120
REMARK   50  A    between atoms: _120  and  _121
REMARK   51  A    between atoms: _127  and  _128
REMARK   52  A    between atoms: _133  and  _135
REMARK   53  A    between atoms: _135  and  _136
REMARK   54  A    between atoms: _135  and  _138
REMARK   55  A    between atoms: _138  and  _139
REMARK   56  A    between atoms: _142  and  _144
REMARK   57  A    between atoms: _144  and  _145
REMARK   58  A    between atoms: _144  and  _147
REMARK   59  A    between atoms: _147  and  _148
REMARK   60  A    between atoms: _154  and  _156
REMARK   61  A    between atoms: _156  and  _157
REMARK   62  A    between atoms: _156  and  _159
REMARK   63  A    between atoms: _159  and  _160
REMARK   64  A    between atoms: _163  and  _165
REMARK   65  A    between atoms: _165  and  _166
REMARK   66  A    between atoms: _165  and  _168
REMARK   67  A    between atoms: _168  and  _169
REMARK   68  A    between atoms: _174  and  _176
REMARK   69  A    between atoms: _176  and  _177
REMARK   70  A    between atoms: _180  and  _182
REMARK   71  A    between atoms: _182  and  _183
REMARK   72  A    between atoms: _182  and  _185
REMARK   73  A    between atoms: _185  and  _186
REMARK   74  A    between atoms: _186  and  _187
REMARK   75  A    between atoms: _190  and  _192
REMARK   76  A    between atoms: _192  and  _193
REMARK   77  A    between atoms: _192  and  _195
REMARK   78  A    between atoms: _195  and  _196
REMARK   79  A    between atoms: _196  and  _197
REMARK   80  A    between atoms: _197  and  _198
REMARK   81  A    between atoms: _207  and  _209
REMARK   82  A    between atoms: _209  and  _210
REMARK   83  A    between atoms: _209  and  _212
REMARK   84  A    between atoms: _212  and  _213
REMARK   85  A    between atoms: _216  and  _218
REMARK   86  A    between atoms: _227  and  _230
REMARK   87  A    between atoms: _230  and  _231
REMARK   88  A    between atoms: _236  and  _237
REMARK   89  A    between atoms: _243  and  _245
REMARK   90  A    between atoms: _245  and  _246
REMARK   91  A    between atoms: _245  and  _248
REMARK   92  A    between atoms: _248  and  _249
REMARK   93  A    between atoms: _254  and  _256
REMARK   94  A    between atoms: _256  and  _257
REMARK   95  A    between atoms: _256  and  _259
REMARK   96  A    between atoms: _259  and  _260
REMARK   97  A    between atoms: _265  and  _266
REMARK   98  A    between atoms: _268  and  _270
REMARK   99  A    between atoms: _270  and  _271
REMARK  100  A    between atoms: _270  and  _273
REMARK  101  A    between atoms: _273  and  _274
REMARK  102  A    between atoms: _274  and  _275
REMARK  103  A    between atoms: _275  and  _276
REMARK  104  A    between atoms: _285  and  _287
REMARK  105  A    between atoms: _287  and  _288
REMARK  106  A    between atoms: _287  and  _290
REMARK  107  A    between atoms: _290  and  _291
REMARK  108  A    between atoms: _291  and  _292
REMARK  109  A    between atoms: _295  and  _297
REMARK  110  A    between atoms: _297  and  _298
REMARK  111  A    between atoms: _297  and  _300
REMARK  112  A    between atoms: _300  and  _301
REMARK  113  A    between atoms: _307  and  _309
REMARK  114  A    between atoms: _309  and  _310
REMARK  115  A    between atoms: _309  and  _312
REMARK  116  A    between atoms: _312  and  _313
REMARK  117  A    between atoms: _313  and  _314
REMARK  118  A    between atoms: _316  and  _318
REMARK  119  A    between atoms: _318  and  _319
REMARK  120  A    between atoms: _318  and  _321
REMARK  121  A    between atoms: _321  and  _322
REMARK  122  A    between atoms: _327  and  _329
REMARK  123  A    between atoms: _329  and  _330
REMARK  124  A    between atoms: _329  and  _332
REMARK  125  A    between atoms: _332  and  _333
REMARK  126  A    between atoms: _336  and  _338
REMARK  127  A    between atoms: _338  and  _339
REMARK  128  A    between atoms: _338  and  _341
REMARK  129  A    between atoms: _341  and  _342
REMARK  130  A    between atoms: _342  and  _343
REMARK  131  A    between atoms: _348  and  _350
REMARK  132  A    between atoms: _350  and  _351
REMARK  133  A    between atoms: _350  and  _353
REMARK  134  A    between atoms: _353  and  _354
REMARK  135  A    between atoms: _354  and  _355
REMARK  136  A    between atoms: _355  and  _356
REMARK  137  A    between atoms: _365  and  _367
REMARK  138  A    between atoms: _367  and  _368
REMARK  139  A    between atoms: _367  and  _370
REMARK  140  A    between atoms: _370  and  _371
REMARK  141  A    between atoms: _374  and  _376
REMARK  142  A    between atoms: _376  and  _377
REMARK  143  A    between atoms: _376  and  _379
REMARK  144  A    between atoms: _379  and  _380
REMARK  145  A    between atoms: _380  and  _381
REMARK  146  A    between atoms: _381  and  _382
REMARK                            x       y       z     vdW  Elec       q    Type
REMARK                         _______ _______ _______ _____ _____    ______ ____
ROOT
ATOM      1  O   HOH     1       5.011   8.066  16.167  0.00  0.00    +0.000 OA
ENDROOT
TORSDOF 0
REMARK  Name = ../refined-set-2016/2qx0/2qx0_pocket.pdb
REMARK  146 active torsions:
REMARK  status: ('A' for Active; 'I' for Inactive)
REMARK    1  A    between atoms: _1  and  _3
REMARK    2  A    between atoms: _3  and  _4
REMARK    3  A    between atoms: _7  and  _9
REMARK    4  A    between atoms: _9  and  _10
REMARK    5  A    between atoms: _9  and  _12
REMARK    6  A    between atoms: _12  and  _13
REMARK    7  A    between atoms: _16  and  _18
REMARK    8  A    between atoms: _18  and  _19
REMARK    9  A    between atoms: _21  and  _23
REMARK   10  A    between atoms: _23  and  _24
REMARK   11  A    between atoms: _23  and  _26
REMARK   12  A    between atoms: _26  and  _27
REMARK   13  A    between atoms: _29  and  _31
REMARK   14  A    between atoms: _31  and  _32
REMARK   15  A    between atoms: _31  and  _34
REMARK   16  A    between atoms: _34  and  _35
REMARK   17  A    between atoms: _40  and  _42
REMARK   18  A    between atoms: _42  and  _43
REMARK   19  A    between atoms: _42  and  _45
REMARK   20  A    between atoms: _45  and  _46
REMARK   21  A    between atoms: _51  and  _52
REMARK   22  A    between atoms: _54  and  _56
REMARK   23  A    between atoms: _56  and  _57
REMARK   24  A    between atoms: _56  and  _59
REMARK   25  A    between atoms: _59  and  _60
REMARK   26  A    between atoms: _60  and  _61
REMARK   27  A    between atoms: _61  and  _62
REMARK   28  A    between atoms: _71  and  _73
REMARK   29  A    between atoms: _73  and  _74
REMARK   30  A    between atoms: _73  and  _76
REMARK   31  A    between atoms: _76  and  _77
REMARK   32  A    between atoms: _80  and  _82
REMARK   33  A    between atoms: _82  and  _83
REMARK   34  A    between atoms: _82  and  _85
REMARK   35  A    between atoms: _85  and  _86
REMARK   36  A    between atoms: _86  and  _87
REMARK   37  A    between atoms: _87  and  _88
REMARK   38  A    between atoms: _88  and  _89
REMARK   39  A    between atoms: _94  and  _95
REMARK   40  A    between atoms: _100  and  _102
REMARK   41  A    between atoms: _102  and  _103
REMARK   42  A    between atoms: _102  and  _105
REMARK   43  A    between atoms: _105  and  _106
REMARK   44  A    between atoms: _109  and  _111
REMARK   45  A    between atoms: _111  and  _112
REMARK   46  A    between atoms: _114  and  _116
REMARK   47  A    between atoms: _116  and  _117
REMARK   48  A    between atoms: _116  and  _119
REMARK   49  A    between atoms: _119  and  _120
REMARK   50  A    between atoms: _120  and  _121
REMARK   51  A    between atoms: _127  and  _128
REMARK   52  A    between atoms: _133  and  _135
REMARK   53  A    between atoms: _135  and  _136
REMARK   54  A    between atoms: _135  and  _138
REMARK   55  A    between atoms: _138  and  _139
REMARK   56  A    between atoms: _142  and  _144
REMARK   57  A    between atoms: _144  and  _145
REMARK   58  A    between atoms: _144  and  _147
REMARK   59  A    between atoms: _147  and  _148
REMARK   60  A    between atoms: _154  and  _156
REMARK   61  A    between atoms: _156  and  _157
REMARK   62  A    between atoms: _156  and  _159
REMARK   63  A    between atoms: _159  and  _160
REMARK   64  A    between atoms: _163  and  _165
REMARK   65  A    between atoms: _165  and  _166
REMARK   66  A    between atoms: _165  and  _168
REMARK   67  A    between atoms: _168  and  _169
REMARK   68  A    between atoms: _174  and  _176
REMARK   69  A    between atoms: _176  and  _177
REMARK   70  A    between atoms: _180  and  _182
REMARK   71  A    between atoms: _182  and  _183
REMARK   72  A    between atoms: _182  and  _185
REMARK   73  A    between atoms: _185  and  _186
REMARK   74  A    between atoms: _186  and  _187
REMARK   75  A    between atoms: _190  and  _192
REMARK   76  A    between atoms: _192  and  _193
REMARK   77  A    between atoms: _192  and  _195
REMARK   78  A    between atoms: _195  and  _196
REMARK   79  A    between atoms: _196  and  _197
REMARK   80  A    between atoms: _197  and  _198
REMARK   81  A    between atoms: _207  and  _209
REMARK   82  A    between atoms: _209  and  _210
REMARK   83  A    between atoms: _209  and  _212
REMARK   84  A    between atoms: _212  and  _213
REMARK   85  A    between atoms: _216  and  _218
REMARK   86  A    between atoms: _227  and  _230
REMARK   87  A    between atoms: _230  and  _231
REMARK   88  A    between atoms: _236  and  _237
REMARK   89  A    between atoms: _243  and  _245
REMARK   90  A    between atoms: _245  and  _246
REMARK   91  A    between atoms: _245  and  _248
REMARK   92  A    between atoms: _248  and  _249
REMARK   93  A    between atoms: _254  and  _256
REMARK   94  A    between atoms: _256  and  _257
REMARK   95  A    between atoms: _256  and  _259
REMARK   96  A    between atoms: _259  and  _260
REMARK   97  A    between atoms: _265  and  _266
REMARK   98  A    between atoms: _268  and  _270
REMARK   99  A    between atoms: _270  and  _271
REMARK  100  A    between atoms: _270  and  _273
REMARK  101  A    between atoms: _273  and  _274
REMARK  102  A    between atoms: _274  and  _275
REMARK  103  A    between atoms: _275  and  _276
REMARK  104  A    between atoms: _285  and  _287
REMARK  105  A    between atoms: _287  and  _288
REMARK  106  A    between atoms: _287  and  _290
REMARK  107  A    between atoms: _290  and  _291
REMARK  108  A    between atoms: _291  and  _292
REMARK  109  A    between atoms: _295  and  _297
REMARK  110  A    between atoms: _297  and  _298
REMARK  111  A    between atoms: _297  and  _300
REMARK  112  A    between atoms: _300  and  _301
REMARK  113  A    between atoms: _307  and  _309
REMARK  114  A    between atoms: _309  and  _310
REMARK  115  A    between atoms: _309  and  _312
REMARK  116  A    between atoms: _312  and  _313
REMARK  117  A    between atoms: _313  and  _314
REMARK  118  A    between atoms: _316  and  _318
REMARK  119  A    between atoms: _318  and  _319
REMARK  120  A    between atoms: _318  and  _321
REMARK  121  A    between atoms: _321  and  _322
REMARK  122  A    between atoms: _327  and  _329
REMARK  123  A    between atoms: _329  and  _330
REMARK  124  A    between atoms: _329  and  _332
REMARK  125  A    between atoms: _332  and  _333
REMARK  126  A    between atoms: _336  and  _338
REMARK  127  A    between atoms: _338  and  _339
REMARK  128  A    between atoms: _338  and  _341
REMARK  129  A    between atoms: _341  and  _342
REMARK  130  A    between atoms: _342  and  _343
REMARK  131  A    between atoms: _348  and  _350
REMARK  132  A    between atoms: _350  and  _351
REMARK  133  A    between atoms: _350  and  _353
REMARK  134  A    between atoms: _353  and  _354
REMARK  135  A    between atoms: _354  and  _355
REMARK  136  A    between atoms: _355  and  _356
REMARK  137  A    between atoms: _365  and  _367
REMARK  138  A    between atoms: _367  and  _368
REMARK  139  A    between atoms: _367  and  _370
REMARK  140  A    between atoms: _370  and  _371
REMARK  141  A    between atoms: _374  and  _376
REMARK  142  A    between atoms: _376  and  _377
REMARK  143  A    between atoms: _376  and  _379
REMARK  144  A    between atoms: _379  and  _380
REMARK  145  A    between atoms: _380  and  _381
REMARK  146  A    between atoms: _381  and  _382
REMARK                            x       y       z     vdW  Elec       q    Type
REMARK                         _______ _______ _______ _____ _____    ______ ____
ROOT
ATOM      1  O   HOH     1       7.436   8.360  15.577  0.00  0.00    +0.000 OA
ENDROOT
TORSDOF 0
