REMARK  Name = ../refined-set-2016/4pfu/4pfu_pocket.pdb
REMARK  196 active torsions:
REMARK  status: ('A' for Active; 'I' for Inactive)
REMARK    1  A    between atoms: _1  and  _3
REMARK    2  A    between atoms: _3  and  _4
REMARK    3  A    between atoms: _3  and  _6
REMARK    4  A    between atoms: _6  and  _7
REMARK    5  A    between atoms: _12  and  _13
REMARK    6  A    between atoms: _15  and  _17
REMARK    7  A    between atoms: _17  and  _18
REMARK    8  A    between atoms: _20  and  _22
REMARK    9  A    between atoms: _22  and  _23
REMARK   10  A    between atoms: _25  and  _27
REMARK   11  A    between atoms: _27  and  _28
REMARK   12  A    between atoms: _27  and  _30
REMARK   13  A    between atoms: _30  and  _31
REMARK   14  A    between atoms: _33  and  _35
REMARK   15  A    between atoms: _35  and  _36
REMARK   16  A    between atoms: _35  and  _38
REMARK   17  A    between atoms: _38  and  _39
REMARK   18  A    between atoms: _42  and  _44
REMARK   19  A    between atoms: _44  and  _45
REMARK   20  A    between atoms: _44  and  _47
REMARK   21  A    between atoms: _47  and  _48
REMARK   22  A    between atoms: _59  and  _60
REMARK   23  A    between atoms: _65  and  _67
REMARK   24  A    between atoms: _67  and  _68
REMARK   25  A    between atoms: _67  and  _70
REMARK   26  A    between atoms: _70  and  _71
REMARK   27  A    between atoms: _73  and  _75
REMARK   28  A    between atoms: _75  and  _76
REMARK   29  A    between atoms: _75  and  _78
REMARK   30  A    between atoms: _78  and  _79
REMARK   31  A    between atoms: _84  and  _86
REMARK   32  A    between atoms: _86  and  _87
REMARK   33  A    between atoms: _86  and  _89
REMARK   34  A    between atoms: _89  and  _90
REMARK   35  A    between atoms: _95  and  _97
REMARK   36  A    between atoms: _97  and  _98
REMARK   37  A    between atoms: _101  and  _103
REMARK   38  A    between atoms: _103  and  _104
REMARK   39  A    between atoms: _103  and  _106
REMARK   40  A    between atoms: _106  and  _107
REMARK   41  A    between atoms: _109  and  _111
REMARK   42  A    between atoms: _111  and  _112
REMARK   43  A    between atoms: _111  and  _114
REMARK   44  A    between atoms: _114  and  _115
REMARK   45  A    between atoms: _120  and  _122
REMARK   46  A    between atoms: _122  and  _123
REMARK   47  A    between atoms: _122  and  _125
REMARK   48  A    between atoms: _125  and  _126
REMARK   49  A    between atoms: _132  and  _134
REMARK   50  A    between atoms: _134  and  _135
REMARK   51  A    between atoms: _134  and  _137
REMARK   52  A    between atoms: _137  and  _138
REMARK   53  A    between atoms: _138  and  _139
REMARK   54  A    between atoms: _141  and  _143
REMARK   55  A    between atoms: _143  and  _144
REMARK   56  A    between atoms: _143  and  _146
REMARK   57  A    between atoms: _146  and  _147
REMARK   58  A    between atoms: _150  and  _152
REMARK   59  A    between atoms: _152  and  _153
REMARK   60  A    between atoms: _152  and  _155
REMARK   61  A    between atoms: _155  and  _156
REMARK   62  A    between atoms: _158  and  _160
REMARK   63  A    between atoms: _160  and  _161
REMARK   64  A    between atoms: _160  and  _163
REMARK   65  A    between atoms: _163  and  _164
REMARK   66  A    between atoms: _167  and  _169
REMARK   67  A    between atoms: _169  and  _170
REMARK   68  A    between atoms: _169  and  _172
REMARK   69  A    between atoms: _175  and  _177
REMARK   70  A    between atoms: _177  and  _178
REMARK   71  A    between atoms: _177  and  _180
REMARK   72  A    between atoms: _183  and  _185
REMARK   73  A    between atoms: _185  and  _186
REMARK   74  A    between atoms: _185  and  _188
REMARK   75  A    between atoms: _188  and  _189
REMARK   76  A    between atoms: _194  and  _195
REMARK   77  A    between atoms: _197  and  _199
REMARK   78  A    between atoms: _199  and  _200
REMARK   79  A    between atoms: _199  and  _202
REMARK   80  A    between atoms: _205  and  _207
REMARK   81  A    between atoms: _207  and  _208
REMARK   82  A    between atoms: _207  and  _210
REMARK   83  A    between atoms: _213  and  _214
REMARK   84  A    between atoms: _219  and  _221
REMARK   85  A    between atoms: _221  and  _222
REMARK   86  A    between atoms: _221  and  _224
REMARK   87  A    between atoms: _224  and  _225
REMARK   88  A    between atoms: _230  and  _231
REMARK   89  A    between atoms: _233  and  _235
REMARK   90  A    between atoms: _235  and  _236
REMARK   91  A    between atoms: _238  and  _240
REMARK   92  A    between atoms: _240  and  _241
REMARK   93  A    between atoms: _240  and  _243
REMARK   94  A    between atoms: _243  and  _244
REMARK   95  A    between atoms: _254  and  _256
REMARK   96  A    between atoms: _256  and  _257
REMARK   97  A    between atoms: _256  and  _259
REMARK   98  A    between atoms: _259  and  _260
REMARK   99  A    between atoms: _263  and  _265
REMARK  100  A    between atoms: _265  and  _266
REMARK  101  A    between atoms: _265  and  _268
REMARK  102  A    between atoms: _268  and  _269
REMARK  103  A    between atoms: _272  and  _274
REMARK  104  A    between atoms: _274  and  _275
REMARK  105  A    between atoms: _274  and  _277
REMARK  106  A    between atoms: _277  and  _278
REMARK  107  A    between atoms: _288  and  _290
REMARK  108  A    between atoms: _290  and  _291
REMARK  109  A    between atoms: _290  and  _293
REMARK  110  A    between atoms: _293  and  _294
REMARK  111  A    between atoms: _294  and  _295
REMARK  112  A    between atoms: _297  and  _299
REMARK  113  A    between atoms: _299  and  _300
REMARK  114  A    between atoms: _299  and  _302
REMARK  115  A    between atoms: _302  and  _303
REMARK  116  A    between atoms: _305  and  _307
REMARK  117  A    between atoms: _307  and  _308
REMARK  118  A    between atoms: _307  and  _310
REMARK  119  A    between atoms: _310  and  _311
REMARK  120  A    between atoms: _316  and  _317
REMARK  121  A    between atoms: _319  and  _321
REMARK  122  A    between atoms: _321  and  _322
REMARK  123  A    between atoms: _321  and  _324
REMARK  124  A    between atoms: _324  and  _325
REMARK  125  A    between atoms: _330  and  _331
REMARK  126  A    between atoms: _333  and  _335
REMARK  127  A    between atoms: _335  and  _336
REMARK  128  A    between atoms: _335  and  _338
REMARK  129  A    between atoms: _338  and  _339
REMARK  130  A    between atoms: _339  and  _340
REMARK  131  A    between atoms: _342  and  _344
REMARK  132  A    between atoms: _344  and  _345
REMARK  133  A    between atoms: _344  and  _347
REMARK  134  A    between atoms: _347  and  _348
REMARK  135  A    between atoms: _353  and  _354
REMARK  136  A    between atoms: _356  and  _358
REMARK  137  A    between atoms: _358  and  _359
REMARK  138  A    between atoms: _358  and  _361
REMARK  139  A    between atoms: _361  and  _362
REMARK  140  A    between atoms: _362  and  _363
REMARK  141  A    between atoms: _365  and  _367
REMARK  142  A    between atoms: _367  and  _368
REMARK  143  A    between atoms: _367  and  _370
REMARK  144  A    between atoms: _370  and  _371
REMARK  145  A    between atoms: _376  and  _378
REMARK  146  A    between atoms: _378  and  _379
REMARK  147  A    between atoms: _382  and  _384
REMARK  148  A    between atoms: _384  and  _385
REMARK  149  A    between atoms: _384  and  _387
REMARK  150  A    between atoms: _387  and  _388
REMARK  151  A    between atoms: _393  and  _395
REMARK  152  A    between atoms: _395  and  _396
REMARK  153  A    between atoms: _398  and  _400
REMARK  154  A    between atoms: _400  and  _401
REMARK  155  A    between atoms: _400  and  _403
REMARK  156  A    between atoms: _403  and  _404
REMARK  157  A    between atoms: _407  and  _409
REMARK  158  A    between atoms: _409  and  _410
REMARK  159  A    between atoms: _412  and  _414
REMARK  160  A    between atoms: _414  and  _415
REMARK  161  A    between atoms: _414  and  _417
REMARK  162  A    between atoms: _417  and  _418
REMARK  163  A    between atoms: _428  and  _430
REMARK  164  A    between atoms: _430  and  _431
REMARK  165  A    between atoms: _433  and  _435
REMARK  166  A    between atoms: _435  and  _436
REMARK  167  A    between atoms: _439  and  _441
REMARK  168  A    between atoms: _441  and  _442
REMARK  169  A    between atoms: _441  and  _444
REMARK  170  A    between atoms: _444  and  _445
REMARK  171  A    between atoms: _445  and  _446
REMARK  172  A    between atoms: _448  and  _450
REMARK  173  A    between atoms: _450  and  _451
REMARK  174  A    between atoms: _454  and  _456
REMARK  175  A    between atoms: _456  and  _457
REMARK  176  A    between atoms: _456  and  _459
REMARK  177  A    between atoms: _459  and  _460
REMARK  178  A    between atoms: _466  and  _468
REMARK  179  A    between atoms: _468  and  _469
REMARK  180  A    between atoms: _468  and  _471
REMARK  181  A    between atoms: _473  and  _475
REMARK  182  A    between atoms: _475  and  _476
REMARK  183  A    between atoms: _478  and  _480
REMARK  184  A    between atoms: _480  and  _481
REMARK  185  A    between atoms: _480  and  _483
REMARK  186  A    between atoms: _483  and  _484
REMARK  187  A    between atoms: _494  and  _496
REMARK  188  A    between atoms: _496  and  _497
REMARK  189  A    between atoms: _500  and  _502
REMARK  190  A    between atoms: _502  and  _503
REMARK  191  A    between atoms: _502  and  _505
REMARK  192  A    between atoms: _505  and  _506
REMARK  193  A    between atoms: _511  and  _513
REMARK  194  A    between atoms: _513  and  _514
REMARK  195  A    between atoms: _513  and  _516
REMARK  196  A    between atoms: _516  and  _517
REMARK                            x       y       z     vdW  Elec       q    Type
REMARK                         _______ _______ _______ _____ _____    ______ ____
ROOT
ATOM      1  CA  SER A   4     -40.866 -53.486  18.946  0.00  0.00    +0.178 C 
ENDROOT
BRANCH   1   3
ATOM      2  C   GLY A   3     -41.331 -52.593  16.719  0.00  0.00    +0.243 C 
ATOM      3  N   SER A   4     -41.481 -52.505  18.042  0.00  0.00    -0.295 N 
ATOM      4  H   SER A   4     -42.044 -51.727  18.441  0.00  0.00    +0.150 HD
ATOM      5  O   GLY A   3     -40.806 -53.558  16.166  0.00  0.00    -0.273 OA
BRANCH   2   6
ATOM      6  CA  GLY A   3     -41.842 -51.435  15.887  0.00  0.00    +0.176 C 
BRANCH   6   8
ATOM      7  C   GLY A   2     -42.806 -49.269  16.434  0.00  0.00    +0.243 C 
ATOM      8  N   GLY A   3     -42.797 -50.589  16.585  0.00  0.00    -0.295 N 
ATOM      9  H   GLY A   3     -43.493 -51.030  17.220  0.00  0.00    +0.150 HD
ATOM     10  O   GLY A   2     -41.907 -48.655  15.855  0.00  0.00    -0.273 OA
BRANCH   7  11
ATOM     11  CA  GLY A   2     -44.005 -48.538  17.006  0.00  0.00    +0.176 C 
BRANCH  11  14
ATOM     12  C   TYR A   1     -44.345 -46.500  18.244  0.00  0.00    +0.239 C 
ATOM     13  O   TYR A   1     -45.267 -47.004  18.897  0.00  0.00    -0.274 OA
ATOM     14  N   GLY A   2     -43.732 -47.137  17.251  0.00  0.00    -0.296 N 
ATOM     15  H   GLY A   2     -43.054 -46.628  16.648  0.00  0.00    +0.150 HD
BRANCH  12  16
ATOM     16  CA  TYR A   1     -43.826 -45.119  18.599  0.00  0.00    +0.149 C 
BRANCH  16  17
ATOM     17  N   TYR A   1     -44.943 -44.288  19.032  0.00  0.00    -0.238 NA
ATOM     18  H   TYR A   1     -45.396 -44.504  19.943  0.00  0.00    +0.142 HD
ENDBRANCH  16  17
BRANCH  16  19
ATOM     19  CB  TYR A   1     -42.746 -45.252  19.701  0.00  0.00    +0.053 C 
BRANCH  19  20
ATOM     20  CG  TYR A   1     -41.777 -46.374  19.401  0.00  0.00    -0.020 A 
ATOM     21  CD2 TYR A   1     -42.027 -47.680  19.823  0.00  0.00    -0.001 A 
ATOM     22  CE2 TYR A   1     -41.158 -48.728  19.487  0.00  0.00    +0.036 A 
ATOM     23  CZ  TYR A   1     -40.034 -48.460  18.730  0.00  0.00    +0.134 A 
ATOM     24  CE1 TYR A   1     -39.773 -47.168  18.309  0.00  0.00    +0.036 A 
ATOM     25  CD1 TYR A   1     -40.643 -46.141  18.637  0.00  0.00    -0.001 A 
BRANCH  23  26
ATOM     26  OH  TYR A   1     -39.153 -49.481  18.410  0.00  0.00    -0.506 OA
ATOM     27  HH  TYR A   1     -38.410 -49.116  17.868  0.00  0.00    +0.292 HD
ENDBRANCH  23  26
ENDBRANCH  19  20
ENDBRANCH  16  19
ENDBRANCH  12  16
ENDBRANCH  11  14
ENDBRANCH   7  11
ENDBRANCH   6   8
ENDBRANCH   2   6
ENDBRANCH   1   3
BRANCH   1  28
ATOM     28  C   SER A   4     -41.840 -54.218  19.868  0.00  0.00    +0.243 C 
ATOM     29  O   SER A   4     -41.422 -55.012  20.716  0.00  0.00    -0.273 OA
ATOM     30  N   LEU A   5     -43.129 -53.936  19.724  0.00  0.00    -0.297 N 
ATOM     31  H   LEU A   5     -43.430 -53.299  18.959  0.00  0.00    +0.150 HD
BRANCH  30  32
ATOM     32  CA  LEU A   5     -44.137 -54.507  20.624  0.00  0.00    +0.149 C 
BRANCH  32  33
ATOM     33  C   LEU A   5     -45.011 -55.492  19.861  0.00  0.00    +0.241 C 
ATOM     34  N   TRP A   6     -44.732 -56.783  19.999  0.00  0.00    -0.298 N 
ATOM     35  H   TRP A   6     -44.024 -57.088  20.697  0.00  0.00    +0.150 HD
ATOM     36  O   LEU A   5     -45.923 -55.090  19.145  0.00  0.00    -0.273 OA
BRANCH  34  37
ATOM     37  CA  TRP A   6     -45.416 -57.775  19.175  0.00  0.00    +0.141 C 
BRANCH  37  38
ATOM     38  C   TRP A   6     -46.244 -58.776  19.987  0.00  0.00    +0.227 C 
ATOM     39  O   TRP A   6     -46.752 -59.756  19.440  0.00  0.00    -0.286 OA
ENDBRANCH  37  38
BRANCH  37  40
ATOM     40  CB  TRP A   6     -44.399 -58.504  18.296  0.00  0.00    +0.056 C 
BRANCH  40  41
ATOM     41  CG  TRP A   6     -43.715 -57.570  17.344  0.00  0.00    -0.002 A 
ATOM     42  CD1 TRP A   6     -42.523 -56.925  17.537  0.00  0.00    +0.068 A 
ATOM     43  NE1 TRP A   6     -42.234 -56.136  16.449  0.00  0.00    -0.352 N 
ATOM     44  HE1 TRP A   6     -41.385 -55.545  16.339  0.00  0.00    +0.166 HD
ATOM     45  CE2 TRP A   6     -43.247 -56.254  15.532  0.00  0.00    +0.056 A 
ATOM     46  CZ2 TRP A   6     -43.399 -55.660  14.278  0.00  0.00    +0.017 A 
ATOM     47  CH2 TRP A   6     -44.533 -55.962  13.570  0.00  0.00    +0.001 A 
ATOM     48  CZ3 TRP A   6     -45.504 -56.849  14.079  0.00  0.00    +0.000 A 
ATOM     49  CE3 TRP A   6     -45.348 -57.441  15.317  0.00  0.00    +0.001 A 
ATOM     50  CD2 TRP A   6     -44.201 -57.146  16.066  0.00  0.00    +0.013 A 
ENDBRANCH  40  41
ENDBRANCH  37  40
ENDBRANCH  34  37
ENDBRANCH  32  33
BRANCH  32  51
ATOM     51  CB  LEU A   5     -44.999 -53.404  21.245  0.00  0.00    +0.029 C 
BRANCH  51  52
ATOM     52  CG  LEU A   5     -46.116 -53.861  22.203  0.00  0.00    +0.002 C 
ATOM     53  CD2 LEU A   5     -45.524 -54.553  23.428  0.00  0.00    +0.000 C 
ATOM     54  CD1 LEU A   5     -46.999 -52.691  22.621  0.00  0.00    +0.000 C 
ENDBRANCH  51  52
ENDBRANCH  32  51
ENDBRANCH  30  32
ENDBRANCH   1  28
BRANCH   1  55
ATOM     55  CB  SER A   4     -39.807 -52.801  19.813  0.00  0.00    +0.166 C 
BRANCH  55  56
ATOM     56  OG  SER A   4     -40.378 -51.804  20.637  0.00  0.00    -0.380 OA
ATOM     57  H   SER A   4     -39.668 -51.382  21.183  0.00  0.00    +0.211 HD
ENDBRANCH  55  56
ENDBRANCH   1  55
TORSDOF 21
REMARK  Name = ../refined-set-2016/4pfu/4pfu_pocket.pdb
REMARK  196 active torsions:
REMARK  status: ('A' for Active; 'I' for Inactive)
REMARK    1  A    between atoms: _1  and  _3
REMARK    2  A    between atoms: _3  and  _4
REMARK    3  A    between atoms: _3  and  _6
REMARK    4  A    between atoms: _6  and  _7
REMARK    5  A    between atoms: _12  and  _13
REMARK    6  A    between atoms: _15  and  _17
REMARK    7  A    between atoms: _17  and  _18
REMARK    8  A    between atoms: _20  and  _22
REMARK    9  A    between atoms: _22  and  _23
REMARK   10  A    between atoms: _25  and  _27
REMARK   11  A    between atoms: _27  and  _28
REMARK   12  A    between atoms: _27  and  _30
REMARK   13  A    between atoms: _30  and  _31
REMARK   14  A    between atoms: _33  and  _35
REMARK   15  A    between atoms: _35  and  _36
REMARK   16  A    between atoms: _35  and  _38
REMARK   17  A    between atoms: _38  and  _39
REMARK   18  A    between atoms: _42  and  _44
REMARK   19  A    between atoms: _44  and  _45
REMARK   20  A    between atoms: _44  and  _47
REMARK   21  A    between atoms: _47  and  _48
REMARK   22  A    between atoms: _59  and  _60
REMARK   23  A    between atoms: _65  and  _67
REMARK   24  A    between atoms: _67  and  _68
REMARK   25  A    between atoms: _67  and  _70
REMARK   26  A    between atoms: _70  and  _71
REMARK   27  A    between atoms: _73  and  _75
REMARK   28  A    between atoms: _75  and  _76
REMARK   29  A    between atoms: _75  and  _78
REMARK   30  A    between atoms: _78  and  _79
REMARK   31  A    between atoms: _84  and  _86
REMARK   32  A    between atoms: _86  and  _87
REMARK   33  A    between atoms: _86  and  _89
REMARK   34  A    between atoms: _89  and  _90
REMARK   35  A    between atoms: _95  and  _97
REMARK   36  A    between atoms: _97  and  _98
REMARK   37  A    between atoms: _101  and  _103
REMARK   38  A    between atoms: _103  and  _104
REMARK   39  A    between atoms: _103  and  _106
REMARK   40  A    between atoms: _106  and  _107
REMARK   41  A    between atoms: _109  and  _111
REMARK   42  A    between atoms: _111  and  _112
REMARK   43  A    between atoms: _111  and  _114
REMARK   44  A    between atoms: _114  and  _115
REMARK   45  A    between atoms: _120  and  _122
REMARK   46  A    between atoms: _122  and  _123
REMARK   47  A    between atoms: _122  and  _125
REMARK   48  A    between atoms: _125  and  _126
REMARK   49  A    between atoms: _132  and  _134
REMARK   50  A    between atoms: _134  and  _135
REMARK   51  A    between atoms: _134  and  _137
REMARK   52  A    between atoms: _137  and  _138
REMARK   53  A    between atoms: _138  and  _139
REMARK   54  A    between atoms: _141  and  _143
REMARK   55  A    between atoms: _143  and  _144
REMARK   56  A    between atoms: _143  and  _146
REMARK   57  A    between atoms: _146  and  _147
REMARK   58  A    between atoms: _150  and  _152
REMARK   59  A    between atoms: _152  and  _153
REMARK   60  A    between atoms: _152  and  _155
REMARK   61  A    between atoms: _155  and  _156
REMARK   62  A    between atoms: _158  and  _160
REMARK   63  A    between atoms: _160  and  _161
REMARK   64  A    between atoms: _160  and  _163
REMARK   65  A    between atoms: _163  and  _164
REMARK   66  A    between atoms: _167  and  _169
REMARK   67  A    between atoms: _169  and  _170
REMARK   68  A    between atoms: _169  and  _172
REMARK   69  A    between atoms: _175  and  _177
REMARK   70  A    between atoms: _177  and  _178
REMARK   71  A    between atoms: _177  and  _180
REMARK   72  A    between atoms: _183  and  _185
REMARK   73  A    between atoms: _185  and  _186
REMARK   74  A    between atoms: _185  and  _188
REMARK   75  A    between atoms: _188  and  _189
REMARK   76  A    between atoms: _194  and  _195
REMARK   77  A    between atoms: _197  and  _199
REMARK   78  A    between atoms: _199  and  _200
REMARK   79  A    between atoms: _199  and  _202
REMARK   80  A    between atoms: _205  and  _207
REMARK   81  A    between atoms: _207  and  _208
REMARK   82  A    between atoms: _207  and  _210
REMARK   83  A    between atoms: _213  and  _214
REMARK   84  A    between atoms: _219  and  _221
REMARK   85  A    between atoms: _221  and  _222
REMARK   86  A    between atoms: _221  and  _224
REMARK   87  A    between atoms: _224  and  _225
REMARK   88  A    between atoms: _230  and  _231
REMARK   89  A    between atoms: _233  and  _235
REMARK   90  A    between atoms: _235  and  _236
REMARK   91  A    between atoms: _238  and  _240
REMARK   92  A    between atoms: _240  and  _241
REMARK   93  A    between atoms: _240  and  _243
REMARK   94  A    between atoms: _243  and  _244
REMARK   95  A    between atoms: _254  and  _256
REMARK   96  A    between atoms: _256  and  _257
REMARK   97  A    between atoms: _256  and  _259
REMARK   98  A    between atoms: _259  and  _260
REMARK   99  A    between atoms: _263  and  _265
REMARK  100  A    between atoms: _265  and  _266
REMARK  101  A    between atoms: _265  and  _268
REMARK  102  A    between atoms: _268  and  _269
REMARK  103  A    between atoms: _272  and  _274
REMARK  104  A    between atoms: _274  and  _275
REMARK  105  A    between atoms: _274  and  _277
REMARK  106  A    between atoms: _277  and  _278
REMARK  107  A    between atoms: _288  and  _290
REMARK  108  A    between atoms: _290  and  _291
REMARK  109  A    between atoms: _290  and  _293
REMARK  110  A    between atoms: _293  and  _294
REMARK  111  A    between atoms: _294  and  _295
REMARK  112  A    between atoms: _297  and  _299
REMARK  113  A    between atoms: _299  and  _300
REMARK  114  A    between atoms: _299  and  _302
REMARK  115  A    between atoms: _302  and  _303
REMARK  116  A    between atoms: _305  and  _307
REMARK  117  A    between atoms: _307  and  _308
REMARK  118  A    between atoms: _307  and  _310
REMARK  119  A    between atoms: _310  and  _311
REMARK  120  A    between atoms: _316  and  _317
REMARK  121  A    between atoms: _319  and  _321
REMARK  122  A    between atoms: _321  and  _322
REMARK  123  A    between atoms: _321  and  _324
REMARK  124  A    between atoms: _324  and  _325
REMARK  125  A    between atoms: _330  and  _331
REMARK  126  A    between atoms: _333  and  _335
REMARK  127  A    between atoms: _335  and  _336
REMARK  128  A    between atoms: _335  and  _338
REMARK  129  A    between atoms: _338  and  _339
REMARK  130  A    between atoms: _339  and  _340
REMARK  131  A    between atoms: _342  and  _344
REMARK  132  A    between atoms: _344  and  _345
REMARK  133  A    between atoms: _344  and  _347
REMARK  134  A    between atoms: _347  and  _348
REMARK  135  A    between atoms: _353  and  _354
REMARK  136  A    between atoms: _356  and  _358
REMARK  137  A    between atoms: _358  and  _359
REMARK  138  A    between atoms: _358  and  _361
REMARK  139  A    between atoms: _361  and  _362
REMARK  140  A    between atoms: _362  and  _363
REMARK  141  A    between atoms: _365  and  _367
REMARK  142  A    between atoms: _367  and  _368
REMARK  143  A    between atoms: _367  and  _370
REMARK  144  A    between atoms: _370  and  _371
REMARK  145  A    between atoms: _376  and  _378
REMARK  146  A    between atoms: _378  and  _379
REMARK  147  A    between atoms: _382  and  _384
REMARK  148  A    between atoms: _384  and  _385
REMARK  149  A    between atoms: _384  and  _387
REMARK  150  A    between atoms: _387  and  _388
REMARK  151  A    between atoms: _393  and  _395
REMARK  152  A    between atoms: _395  and  _396
REMARK  153  A    between atoms: _398  and  _400
REMARK  154  A    between atoms: _400  and  _401
REMARK  155  A    between atoms: _400  and  _403
REMARK  156  A    between atoms: _403  and  _404
REMARK  157  A    between atoms: _407  and  _409
REMARK  158  A    between atoms: _409  and  _410
REMARK  159  A    between atoms: _412  and  _414
REMARK  160  A    between atoms: _414  and  _415
REMARK  161  A    between atoms: _414  and  _417
REMARK  162  A    between atoms: _417  and  _418
REMARK  163  A    between atoms: _428  and  _430
REMARK  164  A    between atoms: _430  and  _431
REMARK  165  A    between atoms: _433  and  _435
REMARK  166  A    between atoms: _435  and  _436
REMARK  167  A    between atoms: _439  and  _441
REMARK  168  A    between atoms: _441  and  _442
REMARK  169  A    between atoms: _441  and  _444
REMARK  170  A    between atoms: _444  and  _445
REMARK  171  A    between atoms: _445  and  _446
REMARK  172  A    between atoms: _448  and  _450
REMARK  173  A    between atoms: _450  and  _451
REMARK  174  A    between atoms: _454  and  _456
REMARK  175  A    between atoms: _456  and  _457
REMARK  176  A    between atoms: _456  and  _459
REMARK  177  A    between atoms: _459  and  _460
REMARK  178  A    between atoms: _466  and  _468
REMARK  179  A    between atoms: _468  and  _469
REMARK  180  A    between atoms: _468  and  _471
REMARK  181  A    between atoms: _473  and  _475
REMARK  182  A    between atoms: _475  and  _476
REMARK  183  A    between atoms: _478  and  _480
REMARK  184  A    between atoms: _480  and  _481
REMARK  185  A    between atoms: _480  and  _483
REMARK  186  A    between atoms: _483  and  _484
REMARK  187  A    between atoms: _494  and  _496
REMARK  188  A    between atoms: _496  and  _497
REMARK  189  A    between atoms: _500  and  _502
REMARK  190  A    between atoms: _502  and  _503
REMARK  191  A    between atoms: _502  and  _505
REMARK  192  A    between atoms: _505  and  _506
REMARK  193  A    between atoms: _511  and  _513
REMARK  194  A    between atoms: _513  and  _514
REMARK  195  A    between atoms: _513  and  _516
REMARK  196  A    between atoms: _516  and  _517
REMARK                            x       y       z     vdW  Elec       q    Type
REMARK                         _______ _______ _______ _____ _____    ______ ____
ROOT
ATOM      1  N   PRO A   1     -41.368 -52.715  25.943  0.00  0.00    -0.212 NA
ATOM      2  CA  PRO A   1     -40.377 -51.719  25.505  0.00  0.00    +0.137 C 
ATOM      3  CB  PRO A   1     -40.613 -51.623  23.989  0.00  0.00    +0.027 C 
ATOM      4  CG  PRO A   1     -41.182 -52.935  23.617  0.00  0.00    +0.021 C 
ATOM      5  CD  PRO A   1     -42.035 -53.365  24.800  0.00  0.00    +0.089 C 
ENDROOT
BRANCH   2   6
ATOM      6  C   PRO A   1     -40.585 -50.367  26.179  0.00  0.00    +0.224 C 
ATOM      7  O   PRO A   1     -41.717 -49.883  26.268  0.00  0.00    -0.287 OA
ENDBRANCH   2   6
TORSDOF 1
REMARK  Name = ../refined-set-2016/4pfu/4pfu_pocket.pdb
REMARK  196 active torsions:
REMARK  status: ('A' for Active; 'I' for Inactive)
REMARK    1  A    between atoms: _1  and  _3
REMARK    2  A    between atoms: _3  and  _4
REMARK    3  A    between atoms: _3  and  _6
REMARK    4  A    between atoms: _6  and  _7
REMARK    5  A    between atoms: _12  and  _13
REMARK    6  A    between atoms: _15  and  _17
REMARK    7  A    between atoms: _17  and  _18
REMARK    8  A    between atoms: _20  and  _22
REMARK    9  A    between atoms: _22  and  _23
REMARK   10  A    between atoms: _25  and  _27
REMARK   11  A    between atoms: _27  and  _28
REMARK   12  A    between atoms: _27  and  _30
REMARK   13  A    between atoms: _30  and  _31
REMARK   14  A    between atoms: _33  and  _35
REMARK   15  A    between atoms: _35  and  _36
REMARK   16  A    between atoms: _35  and  _38
REMARK   17  A    between atoms: _38  and  _39
REMARK   18  A    between atoms: _42  and  _44
REMARK   19  A    between atoms: _44  and  _45
REMARK   20  A    between atoms: _44  and  _47
REMARK   21  A    between atoms: _47  and  _48
REMARK   22  A    between atoms: _59  and  _60
REMARK   23  A    between atoms: _65  and  _67
REMARK   24  A    between atoms: _67  and  _68
REMARK   25  A    between atoms: _67  and  _70
REMARK   26  A    between atoms: _70  and  _71
REMARK   27  A    between atoms: _73  and  _75
REMARK   28  A    between atoms: _75  and  _76
REMARK   29  A    between atoms: _75  and  _78
REMARK   30  A    between atoms: _78  and  _79
REMARK   31  A    between atoms: _84  and  _86
REMARK   32  A    between atoms: _86  and  _87
REMARK   33  A    between atoms: _86  and  _89
REMARK   34  A    between atoms: _89  and  _90
REMARK   35  A    between atoms: _95  and  _97
REMARK   36  A    between atoms: _97  and  _98
REMARK   37  A    between atoms: _101  and  _103
REMARK   38  A    between atoms: _103  and  _104
REMARK   39  A    between atoms: _103  and  _106
REMARK   40  A    between atoms: _106  and  _107
REMARK   41  A    between atoms: _109  and  _111
REMARK   42  A    between atoms: _111  and  _112
REMARK   43  A    between atoms: _111  and  _114
REMARK   44  A    between atoms: _114  and  _115
REMARK   45  A    between atoms: _120  and  _122
REMARK   46  A    between atoms: _122  and  _123
REMARK   47  A    between atoms: _122  and  _125
REMARK   48  A    between atoms: _125  and  _126
REMARK   49  A    between atoms: _132  and  _134
REMARK   50  A    between atoms: _134  and  _135
REMARK   51  A    between atoms: _134  and  _137
REMARK   52  A    between atoms: _137  and  _138
REMARK   53  A    between atoms: _138  and  _139
REMARK   54  A    between atoms: _141  and  _143
REMARK   55  A    between atoms: _143  and  _144
REMARK   56  A    between atoms: _143  and  _146
REMARK   57  A    between atoms: _146  and  _147
REMARK   58  A    between atoms: _150  and  _152
REMARK   59  A    between atoms: _152  and  _153
REMARK   60  A    between atoms: _152  and  _155
REMARK   61  A    between atoms: _155  and  _156
REMARK   62  A    between atoms: _158  and  _160
REMARK   63  A    between atoms: _160  and  _161
REMARK   64  A    between atoms: _160  and  _163
REMARK   65  A    between atoms: _163  and  _164
REMARK   66  A    between atoms: _167  and  _169
REMARK   67  A    between atoms: _169  and  _170
REMARK   68  A    between atoms: _169  and  _172
REMARK   69  A    between atoms: _175  and  _177
REMARK   70  A    between atoms: _177  and  _178
REMARK   71  A    between atoms: _177  and  _180
REMARK   72  A    between atoms: _183  and  _185
REMARK   73  A    between atoms: _185  and  _186
REMARK   74  A    between atoms: _185  and  _188
REMARK   75  A    between atoms: _188  and  _189
REMARK   76  A    between atoms: _194  and  _195
REMARK   77  A    between atoms: _197  and  _199
REMARK   78  A    between atoms: _199  and  _200
REMARK   79  A    between atoms: _199  and  _202
REMARK   80  A    between atoms: _205  and  _207
REMARK   81  A    between atoms: _207  and  _208
REMARK   82  A    between atoms: _207  and  _210
REMARK   83  A    between atoms: _213  and  _214
REMARK   84  A    between atoms: _219  and  _221
REMARK   85  A    between atoms: _221  and  _222
REMARK   86  A    between atoms: _221  and  _224
REMARK   87  A    between atoms: _224  and  _225
REMARK   88  A    between atoms: _230  and  _231
REMARK   89  A    between atoms: _233  and  _235
REMARK   90  A    between atoms: _235  and  _236
REMARK   91  A    between atoms: _238  and  _240
REMARK   92  A    between atoms: _240  and  _241
REMARK   93  A    between atoms: _240  and  _243
REMARK   94  A    between atoms: _243  and  _244
REMARK   95  A    between atoms: _254  and  _256
REMARK   96  A    between atoms: _256  and  _257
REMARK   97  A    between atoms: _256  and  _259
REMARK   98  A    between atoms: _259  and  _260
REMARK   99  A    between atoms: _263  and  _265
REMARK  100  A    between atoms: _265  and  _266
REMARK  101  A    between atoms: _265  and  _268
REMARK  102  A    between atoms: _268  and  _269
REMARK  103  A    between atoms: _272  and  _274
REMARK  104  A    between atoms: _274  and  _275
REMARK  105  A    between atoms: _274  and  _277
REMARK  106  A    between atoms: _277  and  _278
REMARK  107  A    between atoms: _288  and  _290
REMARK  108  A    between atoms: _290  and  _291
REMARK  109  A    between atoms: _290  and  _293
REMARK  110  A    between atoms: _293  and  _294
REMARK  111  A    between atoms: _294  and  _295
REMARK  112  A    between atoms: _297  and  _299
REMARK  113  A    between atoms: _299  and  _300
REMARK  114  A    between atoms: _299  and  _302
REMARK  115  A    between atoms: _302  and  _303
REMARK  116  A    between atoms: _305  and  _307
REMARK  117  A    between atoms: _307  and  _308
REMARK  118  A    between atoms: _307  and  _310
REMARK  119  A    between atoms: _310  and  _311
REMARK  120  A    between atoms: _316  and  _317
REMARK  121  A    between atoms: _319  and  _321
REMARK  122  A    between atoms: _321  and  _322
REMARK  123  A    between atoms: _321  and  _324
REMARK  124  A    between atoms: _324  and  _325
REMARK  125  A    between atoms: _330  and  _331
REMARK  126  A    between atoms: _333  and  _335
REMARK  127  A    between atoms: _335  and  _336
REMARK  128  A    between atoms: _335  and  _338
REMARK  129  A    between atoms: _338  and  _339
REMARK  130  A    between atoms: _339  and  _340
REMARK  131  A    between atoms: _342  and  _344
REMARK  132  A    between atoms: _344  and  _345
REMARK  133  A    between atoms: _344  and  _347
REMARK  134  A    between atoms: _347  and  _348
REMARK  135  A    between atoms: _353  and  _354
REMARK  136  A    between atoms: _356  and  _358
REMARK  137  A    between atoms: _358  and  _359
REMARK  138  A    between atoms: _358  and  _361
REMARK  139  A    between atoms: _361  and  _362
REMARK  140  A    between atoms: _362  and  _363
REMARK  141  A    between atoms: _365  and  _367
REMARK  142  A    between atoms: _367  and  _368
REMARK  143  A    between atoms: _367  and  _370
REMARK  144  A    between atoms: _370  and  _371
REMARK  145  A    between atoms: _376  and  _378
REMARK  146  A    between atoms: _378  and  _379
REMARK  147  A    between atoms: _382  and  _384
REMARK  148  A    between atoms: _384  and  _385
REMARK  149  A    between atoms: _384  and  _387
REMARK  150  A    between atoms: _387  and  _388
REMARK  151  A    between atoms: _393  and  _395
REMARK  152  A    between atoms: _395  and  _396
REMARK  153  A    between atoms: _398  and  _400
REMARK  154  A    between atoms: _400  and  _401
REMARK  155  A    between atoms: _400  and  _403
REMARK  156  A    between atoms: _403  and  _404
REMARK  157  A    between atoms: _407  and  _409
REMARK  158  A    between atoms: _409  and  _410
REMARK  159  A    between atoms: _412  and  _414
REMARK  160  A    between atoms: _414  and  _415
REMARK  161  A    between atoms: _414  and  _417
REMARK  162  A    between atoms: _417  and  _418
REMARK  163  A    between atoms: _428  and  _430
REMARK  164  A    between atoms: _430  and  _431
REMARK  165  A    between atoms: _433  and  _435
REMARK  166  A    between atoms: _435  and  _436
REMARK  167  A    between atoms: _439  and  _441
REMARK  168  A    between atoms: _441  and  _442
REMARK  169  A    between atoms: _441  and  _444
REMARK  170  A    between atoms: _444  and  _445
REMARK  171  A    between atoms: _445  and  _446
REMARK  172  A    between atoms: _448  and  _450
REMARK  173  A    between atoms: _450  and  _451
REMARK  174  A    between atoms: _454  and  _456
REMARK  175  A    between atoms: _456  and  _457
REMARK  176  A    between atoms: _456  and  _459
REMARK  177  A    between atoms: _459  and  _460
REMARK  178  A    between atoms: _466  and  _468
REMARK  179  A    between atoms: _468  and  _469
REMARK  180  A    between atoms: _468  and  _471
REMARK  181  A    between atoms: _473  and  _475
REMARK  182  A    between atoms: _475  and  _476
REMARK  183  A    between atoms: _478  and  _480
REMARK  184  A    between atoms: _480  and  _481
REMARK  185  A    between atoms: _480  and  _483
REMARK  186  A    between atoms: _483  and  _484
REMARK  187  A    between atoms: _494  and  _496
REMARK  188  A    between atoms: _496  and  _497
REMARK  189  A    between atoms: _500  and  _502
REMARK  190  A    between atoms: _502  and  _503
REMARK  191  A    between atoms: _502  and  _505
REMARK  192  A    between atoms: _505  and  _506
REMARK  193  A    between atoms: _511  and  _513
REMARK  194  A    between atoms: _513  and  _514
REMARK  195  A    between atoms: _513  and  _516
REMARK  196  A    between atoms: _516  and  _517
REMARK                            x       y       z     vdW  Elec       q    Type
REMARK                         _______ _______ _______ _____ _____    ______ ____
ROOT
ATOM      1  CA  ASN A   2     -45.700 -54.246   9.279  0.00  0.00    +0.158 C 
ENDROOT
BRANCH   1   4
ATOM      2  C   SER A   1     -47.538 -55.441  10.349  0.00  0.00    +0.241 C 
ATOM      3  O   SER A   1     -48.206 -54.417  10.467  0.00  0.00    -0.274 OA
ATOM      4  N   ASN A   2     -46.341 -55.468   9.775  0.00  0.00    -0.297 N 
ATOM      5  H   ASN A   2     -45.846 -56.377   9.675  0.00  0.00    +0.150 HD
BRANCH   2   6
ATOM      6  CA  SER A   1     -48.075 -56.769  10.841  0.00  0.00    +0.174 C 
BRANCH   6   7
ATOM      7  N   SER A   1     -49.095 -56.565  11.861  0.00  0.00    -0.236 NA
ATOM      8  H   SER A   1     -49.588 -55.651  11.917  0.00  0.00    +0.142 HD
ENDBRANCH   6   7
BRANCH   6   9
ATOM      9  CB  SER A   1     -48.646 -57.557   9.670  0.00  0.00    +0.163 C 
BRANCH   9  10
ATOM     10  OG  SER A   1     -49.535 -56.741   8.937  0.00  0.00    -0.380 OA
ATOM     11  H   SER A   1     -49.049 -55.949   8.595  0.00  0.00    +0.211 HD
ENDBRANCH   9  10
ENDBRANCH   6   9
ENDBRANCH   2   6
ENDBRANCH   1   4
BRANCH   1  12
ATOM     12  C   ASN A   2     -46.599 -53.405   8.367  0.00  0.00    +0.241 C 
ATOM     13  O   ASN A   2     -46.584 -52.181   8.439  0.00  0.00    -0.273 OA
ATOM     14  N   ASN A   3     -47.393 -54.080   7.535  0.00  0.00    -0.298 N 
ATOM     15  H   ASN A   3     -47.444 -55.115   7.619  0.00  0.00    +0.150 HD
BRANCH  14  16
ATOM     16  CA  ASN A   3     -48.191 -53.419   6.513  0.00  0.00    +0.146 C 
BRANCH  16  17
ATOM     17  C   ASN A   3     -49.129 -52.395   7.141  0.00  0.00    +0.227 C 
ATOM     18  O   ASN A   3     -49.345 -51.324   6.587  0.00  0.00    -0.286 OA
ENDBRANCH  16  17
BRANCH  16  19
ATOM     19  CB  ASN A   3     -48.967 -54.461   5.686  0.00  0.00    +0.112 C 
BRANCH  19  20
ATOM     20  CG  ASN A   3     -48.039 -55.466   4.986  0.00  0.00    +0.222 C 
ATOM     21  OD1 ASN A   3     -46.861 -55.180   4.763  0.00  0.00    -0.275 OA
ATOM     22  ND2 ASN A   3     -48.568 -56.645   4.646  0.00  0.00    -0.329 N 
ATOM     23 HD21 ASN A   3     -49.567 -56.846   4.853  0.00  0.00    +0.145 HD
ATOM     24 HD22 ASN A   3     -47.980 -57.362   4.175  0.00  0.00    +0.145 HD
ENDBRANCH  19  20
ENDBRANCH  16  19
ENDBRANCH  14  16
ENDBRANCH   1  12
BRANCH   1  25
ATOM     25  CB  ASN A   2     -44.419 -54.574   8.513  0.00  0.00    +0.114 C 
BRANCH  25  26
ATOM     26  CG  ASN A   2     -43.340 -55.154   9.392  0.00  0.00    +0.222 C 
ATOM     27  OD1 ASN A   2     -43.308 -54.923  10.606  0.00  0.00    -0.275 OA
ATOM     28  ND2 ASN A   2     -42.440 -55.924   8.782  0.00  0.00    -0.329 N 
ATOM     29 HD21 ASN A   2     -41.671 -56.359   9.330  0.00  0.00    +0.145 HD
ATOM     30 HD22 ASN A   2     -42.507 -56.090   7.758  0.00  0.00    +0.145 HD
ENDBRANCH  25  26
ENDBRANCH   1  25
TORSDOF 12
REMARK  Name = ../refined-set-2016/4pfu/4pfu_pocket.pdb
REMARK  196 active torsions:
REMARK  status: ('A' for Active; 'I' for Inactive)
REMARK    1  A    between atoms: _1  and  _3
REMARK    2  A    between atoms: _3  and  _4
REMARK    3  A    between atoms: _3  and  _6
REMARK    4  A    between atoms: _6  and  _7
REMARK    5  A    between atoms: _12  and  _13
REMARK    6  A    between atoms: _15  and  _17
REMARK    7  A    between atoms: _17  and  _18
REMARK    8  A    between atoms: _20  and  _22
REMARK    9  A    between atoms: _22  and  _23
REMARK   10  A    between atoms: _25  and  _27
REMARK   11  A    between atoms: _27  and  _28
REMARK   12  A    between atoms: _27  and  _30
REMARK   13  A    between atoms: _30  and  _31
REMARK   14  A    between atoms: _33  and  _35
REMARK   15  A    between atoms: _35  and  _36
REMARK   16  A    between atoms: _35  and  _38
REMARK   17  A    between atoms: _38  and  _39
REMARK   18  A    between atoms: _42  and  _44
REMARK   19  A    between atoms: _44  and  _45
REMARK   20  A    between atoms: _44  and  _47
REMARK   21  A    between atoms: _47  and  _48
REMARK   22  A    between atoms: _59  and  _60
REMARK   23  A    between atoms: _65  and  _67
REMARK   24  A    between atoms: _67  and  _68
REMARK   25  A    between atoms: _67  and  _70
REMARK   26  A    between atoms: _70  and  _71
REMARK   27  A    between atoms: _73  and  _75
REMARK   28  A    between atoms: _75  and  _76
REMARK   29  A    between atoms: _75  and  _78
REMARK   30  A    between atoms: _78  and  _79
REMARK   31  A    between atoms: _84  and  _86
REMARK   32  A    between atoms: _86  and  _87
REMARK   33  A    between atoms: _86  and  _89
REMARK   34  A    between atoms: _89  and  _90
REMARK   35  A    between atoms: _95  and  _97
REMARK   36  A    between atoms: _97  and  _98
REMARK   37  A    between atoms: _101  and  _103
REMARK   38  A    between atoms: _103  and  _104
REMARK   39  A    between atoms: _103  and  _106
REMARK   40  A    between atoms: _106  and  _107
REMARK   41  A    between atoms: _109  and  _111
REMARK   42  A    between atoms: _111  and  _112
REMARK   43  A    between atoms: _111  and  _114
REMARK   44  A    between atoms: _114  and  _115
REMARK   45  A    between atoms: _120  and  _122
REMARK   46  A    between atoms: _122  and  _123
REMARK   47  A    between atoms: _122  and  _125
REMARK   48  A    between atoms: _125  and  _126
REMARK   49  A    between atoms: _132  and  _134
REMARK   50  A    between atoms: _134  and  _135
REMARK   51  A    between atoms: _134  and  _137
REMARK   52  A    between atoms: _137  and  _138
REMARK   53  A    between atoms: _138  and  _139
REMARK   54  A    between atoms: _141  and  _143
REMARK   55  A    between atoms: _143  and  _144
REMARK   56  A    between atoms: _143  and  _146
REMARK   57  A    between atoms: _146  and  _147
REMARK   58  A    between atoms: _150  and  _152
REMARK   59  A    between atoms: _152  and  _153
REMARK   60  A    between atoms: _152  and  _155
REMARK   61  A    between atoms: _155  and  _156
REMARK   62  A    between atoms: _158  and  _160
REMARK   63  A    between atoms: _160  and  _161
REMARK   64  A    between atoms: _160  and  _163
REMARK   65  A    between atoms: _163  and  _164
REMARK   66  A    between atoms: _167  and  _169
REMARK   67  A    between atoms: _169  and  _170
REMARK   68  A    between atoms: _169  and  _172
REMARK   69  A    between atoms: _175  and  _177
REMARK   70  A    between atoms: _177  and  _178
REMARK   71  A    between atoms: _177  and  _180
REMARK   72  A    between atoms: _183  and  _185
REMARK   73  A    between atoms: _185  and  _186
REMARK   74  A    between atoms: _185  and  _188
REMARK   75  A    between atoms: _188  and  _189
REMARK   76  A    between atoms: _194  and  _195
REMARK   77  A    between atoms: _197  and  _199
REMARK   78  A    between atoms: _199  and  _200
REMARK   79  A    between atoms: _199  and  _202
REMARK   80  A    between atoms: _205  and  _207
REMARK   81  A    between atoms: _207  and  _208
REMARK   82  A    between atoms: _207  and  _210
REMARK   83  A    between atoms: _213  and  _214
REMARK   84  A    between atoms: _219  and  _221
REMARK   85  A    between atoms: _221  and  _222
REMARK   86  A    between atoms: _221  and  _224
REMARK   87  A    between atoms: _224  and  _225
REMARK   88  A    between atoms: _230  and  _231
REMARK   89  A    between atoms: _233  and  _235
REMARK   90  A    between atoms: _235  and  _236
REMARK   91  A    between atoms: _238  and  _240
REMARK   92  A    between atoms: _240  and  _241
REMARK   93  A    between atoms: _240  and  _243
REMARK   94  A    between atoms: _243  and  _244
REMARK   95  A    between atoms: _254  and  _256
REMARK   96  A    between atoms: _256  and  _257
REMARK   97  A    between atoms: _256  and  _259
REMARK   98  A    between atoms: _259  and  _260
REMARK   99  A    between atoms: _263  and  _265
REMARK  100  A    between atoms: _265  and  _266
REMARK  101  A    between atoms: _265  and  _268
REMARK  102  A    between atoms: _268  and  _269
REMARK  103  A    between atoms: _272  and  _274
REMARK  104  A    between atoms: _274  and  _275
REMARK  105  A    between atoms: _274  and  _277
REMARK  106  A    between atoms: _277  and  _278
REMARK  107  A    between atoms: _288  and  _290
REMARK  108  A    between atoms: _290  and  _291
REMARK  109  A    between atoms: _290  and  _293
REMARK  110  A    between atoms: _293  and  _294
REMARK  111  A    between atoms: _294  and  _295
REMARK  112  A    between atoms: _297  and  _299
REMARK  113  A    between atoms: _299  and  _300
REMARK  114  A    between atoms: _299  and  _302
REMARK  115  A    between atoms: _302  and  _303
REMARK  116  A    between atoms: _305  and  _307
REMARK  117  A    between atoms: _307  and  _308
REMARK  118  A    between atoms: _307  and  _310
REMARK  119  A    between atoms: _310  and  _311
REMARK  120  A    between atoms: _316  and  _317
REMARK  121  A    between atoms: _319  and  _321
REMARK  122  A    between atoms: _321  and  _322
REMARK  123  A    between atoms: _321  and  _324
REMARK  124  A    between atoms: _324  and  _325
REMARK  125  A    between atoms: _330  and  _331
REMARK  126  A    between atoms: _333  and  _335
REMARK  127  A    between atoms: _335  and  _336
REMARK  128  A    between atoms: _335  and  _338
REMARK  129  A    between atoms: _338  and  _339
REMARK  130  A    between atoms: _339  and  _340
REMARK  131  A    between atoms: _342  and  _344
REMARK  132  A    between atoms: _344  and  _345
REMARK  133  A    between atoms: _344  and  _347
REMARK  134  A    between atoms: _347  and  _348
REMARK  135  A    between atoms: _353  and  _354
REMARK  136  A    between atoms: _356  and  _358
REMARK  137  A    between atoms: _358  and  _359
REMARK  138  A    between atoms: _358  and  _361
REMARK  139  A    between atoms: _361  and  _362
REMARK  140  A    between atoms: _362  and  _363
REMARK  141  A    between atoms: _365  and  _367
REMARK  142  A    between atoms: _367  and  _368
REMARK  143  A    between atoms: _367  and  _370
REMARK  144  A    between atoms: _370  and  _371
REMARK  145  A    between atoms: _376  and  _378
REMARK  146  A    between atoms: _378  and  _379
REMARK  147  A    between atoms: _382  and  _384
REMARK  148  A    between atoms: _384  and  _385
REMARK  149  A    between atoms: _384  and  _387
REMARK  150  A    between atoms: _387  and  _388
REMARK  151  A    between atoms: _393  and  _395
REMARK  152  A    between atoms: _395  and  _396
REMARK  153  A    between atoms: _398  and  _400
REMARK  154  A    between atoms: _400  and  _401
REMARK  155  A    between atoms: _400  and  _403
REMARK  156  A    between atoms: _403  and  _404
REMARK  157  A    between atoms: _407  and  _409
REMARK  158  A    between atoms: _409  and  _410
REMARK  159  A    between atoms: _412  and  _414
REMARK  160  A    between atoms: _414  and  _415
REMARK  161  A    between atoms: _414  and  _417
REMARK  162  A    between atoms: _417  and  _418
REMARK  163  A    between atoms: _428  and  _430
REMARK  164  A    between atoms: _430  and  _431
REMARK  165  A    between atoms: _433  and  _435
REMARK  166  A    between atoms: _435  and  _436
REMARK  167  A    between atoms: _439  and  _441
REMARK  168  A    between atoms: _441  and  _442
REMARK  169  A    between atoms: _441  and  _444
REMARK  170  A    between atoms: _444  and  _445
REMARK  171  A    between atoms: _445  and  _446
REMARK  172  A    between atoms: _448  and  _450
REMARK  173  A    between atoms: _450  and  _451
REMARK  174  A    between atoms: _454  and  _456
REMARK  175  A    between atoms: _456  and  _457
REMARK  176  A    between atoms: _456  and  _459
REMARK  177  A    between atoms: _459  and  _460
REMARK  178  A    between atoms: _466  and  _468
REMARK  179  A    between atoms: _468  and  _469
REMARK  180  A    between atoms: _468  and  _471
REMARK  181  A    between atoms: _473  and  _475
REMARK  182  A    between atoms: _475  and  _476
REMARK  183  A    between atoms: _478  and  _480
REMARK  184  A    between atoms: _480  and  _481
REMARK  185  A    between atoms: _480  and  _483
REMARK  186  A    between atoms: _483  and  _484
REMARK  187  A    between atoms: _494  and  _496
REMARK  188  A    between atoms: _496  and  _497
REMARK  189  A    between atoms: _500  and  _502
REMARK  190  A    between atoms: _502  and  _503
REMARK  191  A    between atoms: _502  and  _505
REMARK  192  A    between atoms: _505  and  _506
REMARK  193  A    between atoms: _511  and  _513
REMARK  194  A    between atoms: _513  and  _514
REMARK  195  A    between atoms: _513  and  _516
REMARK  196  A    between atoms: _516  and  _517
REMARK                            x       y       z     vdW  Elec       q    Type
REMARK                         _______ _______ _______ _____ _____    ______ ____
ROOT
ATOM      1  CA  ALA A   1     -47.818 -49.326  10.051  0.00  0.00    +0.133 C 
ATOM      2  CB  ALA A   1     -46.392 -49.696  10.413  0.00  0.00    +0.027 C 
ENDROOT
BRANCH   1   3
ATOM      3  N   ALA A   1     -48.563 -50.519   9.646  0.00  0.00    -0.239 NA
ATOM      4  H   ALA A   1     -48.060 -51.426   9.572  0.00  0.00    +0.142 HD
ENDBRANCH   1   3
BRANCH   1   5
ATOM      5  C   ALA A   1     -47.810 -48.251   8.980  0.00  0.00    +0.224 C 
ATOM      6  O   ALA A   1     -47.826 -47.057   9.283  0.00  0.00    -0.287 OA
ENDBRANCH   1   5
TORSDOF 2
REMARK  Name = ../refined-set-2016/4pfu/4pfu_pocket.pdb
REMARK  196 active torsions:
REMARK  status: ('A' for Active; 'I' for Inactive)
REMARK    1  A    between atoms: _1  and  _3
REMARK    2  A    between atoms: _3  and  _4
REMARK    3  A    between atoms: _3  and  _6
REMARK    4  A    between atoms: _6  and  _7
REMARK    5  A    between atoms: _12  and  _13
REMARK    6  A    between atoms: _15  and  _17
REMARK    7  A    between atoms: _17  and  _18
REMARK    8  A    between atoms: _20  and  _22
REMARK    9  A    between atoms: _22  and  _23
REMARK   10  A    between atoms: _25  and  _27
REMARK   11  A    between atoms: _27  and  _28
REMARK   12  A    between atoms: _27  and  _30
REMARK   13  A    between atoms: _30  and  _31
REMARK   14  A    between atoms: _33  and  _35
REMARK   15  A    between atoms: _35  and  _36
REMARK   16  A    between atoms: _35  and  _38
REMARK   17  A    between atoms: _38  and  _39
REMARK   18  A    between atoms: _42  and  _44
REMARK   19  A    between atoms: _44  and  _45
REMARK   20  A    between atoms: _44  and  _47
REMARK   21  A    between atoms: _47  and  _48
REMARK   22  A    between atoms: _59  and  _60
REMARK   23  A    between atoms: _65  and  _67
REMARK   24  A    between atoms: _67  and  _68
REMARK   25  A    between atoms: _67  and  _70
REMARK   26  A    between atoms: _70  and  _71
REMARK   27  A    between atoms: _73  and  _75
REMARK   28  A    between atoms: _75  and  _76
REMARK   29  A    between atoms: _75  and  _78
REMARK   30  A    between atoms: _78  and  _79
REMARK   31  A    between atoms: _84  and  _86
REMARK   32  A    between atoms: _86  and  _87
REMARK   33  A    between atoms: _86  and  _89
REMARK   34  A    between atoms: _89  and  _90
REMARK   35  A    between atoms: _95  and  _97
REMARK   36  A    between atoms: _97  and  _98
REMARK   37  A    between atoms: _101  and  _103
REMARK   38  A    between atoms: _103  and  _104
REMARK   39  A    between atoms: _103  and  _106
REMARK   40  A    between atoms: _106  and  _107
REMARK   41  A    between atoms: _109  and  _111
REMARK   42  A    between atoms: _111  and  _112
REMARK   43  A    between atoms: _111  and  _114
REMARK   44  A    between atoms: _114  and  _115
REMARK   45  A    between atoms: _120  and  _122
REMARK   46  A    between atoms: _122  and  _123
REMARK   47  A    between atoms: _122  and  _125
REMARK   48  A    between atoms: _125  and  _126
REMARK   49  A    between atoms: _132  and  _134
REMARK   50  A    between atoms: _134  and  _135
REMARK   51  A    between atoms: _134  and  _137
REMARK   52  A    between atoms: _137  and  _138
REMARK   53  A    between atoms: _138  and  _139
REMARK   54  A    between atoms: _141  and  _143
REMARK   55  A    between atoms: _143  and  _144
REMARK   56  A    between atoms: _143  and  _146
REMARK   57  A    between atoms: _146  and  _147
REMARK   58  A    between atoms: _150  and  _152
REMARK   59  A    between atoms: _152  and  _153
REMARK   60  A    between atoms: _152  and  _155
REMARK   61  A    between atoms: _155  and  _156
REMARK   62  A    between atoms: _158  and  _160
REMARK   63  A    between atoms: _160  and  _161
REMARK   64  A    between atoms: _160  and  _163
REMARK   65  A    between atoms: _163  and  _164
REMARK   66  A    between atoms: _167  and  _169
REMARK   67  A    between atoms: _169  and  _170
REMARK   68  A    between atoms: _169  and  _172
REMARK   69  A    between atoms: _175  and  _177
REMARK   70  A    between atoms: _177  and  _178
REMARK   71  A    between atoms: _177  and  _180
REMARK   72  A    between atoms: _183  and  _185
REMARK   73  A    between atoms: _185  and  _186
REMARK   74  A    between atoms: _185  and  _188
REMARK   75  A    between atoms: _188  and  _189
REMARK   76  A    between atoms: _194  and  _195
REMARK   77  A    between atoms: _197  and  _199
REMARK   78  A    between atoms: _199  and  _200
REMARK   79  A    between atoms: _199  and  _202
REMARK   80  A    between atoms: _205  and  _207
REMARK   81  A    between atoms: _207  and  _208
REMARK   82  A    between atoms: _207  and  _210
REMARK   83  A    between atoms: _213  and  _214
REMARK   84  A    between atoms: _219  and  _221
REMARK   85  A    between atoms: _221  and  _222
REMARK   86  A    between atoms: _221  and  _224
REMARK   87  A    between atoms: _224  and  _225
REMARK   88  A    between atoms: _230  and  _231
REMARK   89  A    between atoms: _233  and  _235
REMARK   90  A    between atoms: _235  and  _236
REMARK   91  A    between atoms: _238  and  _240
REMARK   92  A    between atoms: _240  and  _241
REMARK   93  A    between atoms: _240  and  _243
REMARK   94  A    between atoms: _243  and  _244
REMARK   95  A    between atoms: _254  and  _256
REMARK   96  A    between atoms: _256  and  _257
REMARK   97  A    between atoms: _256  and  _259
REMARK   98  A    between atoms: _259  and  _260
REMARK   99  A    between atoms: _263  and  _265
REMARK  100  A    between atoms: _265  and  _266
REMARK  101  A    between atoms: _265  and  _268
REMARK  102  A    between atoms: _268  and  _269
REMARK  103  A    between atoms: _272  and  _274
REMARK  104  A    between atoms: _274  and  _275
REMARK  105  A    between atoms: _274  and  _277
REMARK  106  A    between atoms: _277  and  _278
REMARK  107  A    between atoms: _288  and  _290
REMARK  108  A    between atoms: _290  and  _291
REMARK  109  A    between atoms: _290  and  _293
REMARK  110  A    between atoms: _293  and  _294
REMARK  111  A    between atoms: _294  and  _295
REMARK  112  A    between atoms: _297  and  _299
REMARK  113  A    between atoms: _299  and  _300
REMARK  114  A    between atoms: _299  and  _302
REMARK  115  A    between atoms: _302  and  _303
REMARK  116  A    between atoms: _305  and  _307
REMARK  117  A    between atoms: _307  and  _308
REMARK  118  A    between atoms: _307  and  _310
REMARK  119  A    between atoms: _310  and  _311
REMARK  120  A    between atoms: _316  and  _317
REMARK  121  A    between atoms: _319  and  _321
REMARK  122  A    between atoms: _321  and  _322
REMARK  123  A    between atoms: _321  and  _324
REMARK  124  A    between atoms: _324  and  _325
REMARK  125  A    between atoms: _330  and  _331
REMARK  126  A    between atoms: _333  and  _335
REMARK  127  A    between atoms: _335  and  _336
REMARK  128  A    between atoms: _335  and  _338
REMARK  129  A    between atoms: _338  and  _339
REMARK  130  A    between atoms: _339  and  _340
REMARK  131  A    between atoms: _342  and  _344
REMARK  132  A    between atoms: _344  and  _345
REMARK  133  A    between atoms: _344  and  _347
REMARK  134  A    between atoms: _347  and  _348
REMARK  135  A    between atoms: _353  and  _354
REMARK  136  A    between atoms: _356  and  _358
REMARK  137  A    between atoms: _358  and  _359
REMARK  138  A    between atoms: _358  and  _361
REMARK  139  A    between atoms: _361  and  _362
REMARK  140  A    between atoms: _362  and  _363
REMARK  141  A    between atoms: _365  and  _367
REMARK  142  A    between atoms: _367  and  _368
REMARK  143  A    between atoms: _367  and  _370
REMARK  144  A    between atoms: _370  and  _371
REMARK  145  A    between atoms: _376  and  _378
REMARK  146  A    between atoms: _378  and  _379
REMARK  147  A    between atoms: _382  and  _384
REMARK  148  A    between atoms: _384  and  _385
REMARK  149  A    between atoms: _384  and  _387
REMARK  150  A    between atoms: _387  and  _388
REMARK  151  A    between atoms: _393  and  _395
REMARK  152  A    between atoms: _395  and  _396
REMARK  153  A    between atoms: _398  and  _400
REMARK  154  A    between atoms: _400  and  _401
REMARK  155  A    between atoms: _400  and  _403
REMARK  156  A    between atoms: _403  and  _404
REMARK  157  A    between atoms: _407  and  _409
REMARK  158  A    between atoms: _409  and  _410
REMARK  159  A    between atoms: _412  and  _414
REMARK  160  A    between atoms: _414  and  _415
REMARK  161  A    between atoms: _414  and  _417
REMARK  162  A    between atoms: _417  and  _418
REMARK  163  A    between atoms: _428  and  _430
REMARK  164  A    between atoms: _430  and  _431
REMARK  165  A    between atoms: _433  and  _435
REMARK  166  A    between atoms: _435  and  _436
REMARK  167  A    between atoms: _439  and  _441
REMARK  168  A    between atoms: _441  and  _442
REMARK  169  A    between atoms: _441  and  _444
REMARK  170  A    between atoms: _444  and  _445
REMARK  171  A    between atoms: _445  and  _446
REMARK  172  A    between atoms: _448  and  _450
REMARK  173  A    between atoms: _450  and  _451
REMARK  174  A    between atoms: _454  and  _456
REMARK  175  A    between atoms: _456  and  _457
REMARK  176  A    between atoms: _456  and  _459
REMARK  177  A    between atoms: _459  and  _460
REMARK  178  A    between atoms: _466  and  _468
REMARK  179  A    between atoms: _468  and  _469
REMARK  180  A    between atoms: _468  and  _471
REMARK  181  A    between atoms: _473  and  _475
REMARK  182  A    between atoms: _475  and  _476
REMARK  183  A    between atoms: _478  and  _480
REMARK  184  A    between atoms: _480  and  _481
REMARK  185  A    between atoms: _480  and  _483
REMARK  186  A    between atoms: _483  and  _484
REMARK  187  A    between atoms: _494  and  _496
REMARK  188  A    between atoms: _496  and  _497
REMARK  189  A    between atoms: _500  and  _502
REMARK  190  A    between atoms: _502  and  _503
REMARK  191  A    between atoms: _502  and  _505
REMARK  192  A    between atoms: _505  and  _506
REMARK  193  A    between atoms: _511  and  _513
REMARK  194  A    between atoms: _513  and  _514
REMARK  195  A    between atoms: _513  and  _516
REMARK  196  A    between atoms: _516  and  _517
REMARK                            x       y       z     vdW  Elec       q    Type
REMARK                         _______ _______ _______ _____ _____    ______ ____
ROOT
ATOM      1  CA  PHE A   3     -41.279 -51.126  11.417  0.00  0.00    +0.153 C 
ENDROOT
BRANCH   1   4
ATOM      2  C   ASN A   2     -39.562 -50.144  12.821  0.00  0.00    +0.241 C 
ATOM      3  O   ASN A   2     -38.870 -51.159  12.703  0.00  0.00    -0.273 OA
ATOM      4  N   PHE A   3     -40.779 -50.049  12.287  0.00  0.00    -0.297 N 
ATOM      5  H   PHE A   3     -41.373 -49.218  12.484  0.00  0.00    +0.150 HD
BRANCH   2   6
ATOM      6  CA  ASN A   2     -39.041 -48.951  13.643  0.00  0.00    +0.158 C 
BRANCH   6   8
ATOM      7  C   SER A   1     -40.182 -46.851  13.193  0.00  0.00    +0.241 C 
ATOM      8  N   ASN A   2     -40.087 -47.967  13.913  0.00  0.00    -0.297 N 
ATOM      9  H   ASN A   2     -40.768 -48.141  14.680  0.00  0.00    +0.150 HD
ATOM     10  O   SER A   1     -39.316 -46.495  12.387  0.00  0.00    -0.274 OA
BRANCH   7  11
ATOM     11  CA  SER A   1     -41.449 -46.032  13.382  0.00  0.00    +0.174 C 
BRANCH  11  12
ATOM     12  N   SER A   1     -41.229 -44.657  13.815  0.00  0.00    -0.236 NA
ATOM     13  H   SER A   1     -40.759 -43.989  13.171  0.00  0.00    +0.142 HD
ENDBRANCH  11  12
BRANCH  11  14
ATOM     14  CB  SER A   1     -42.229 -46.052  12.059  0.00  0.00    +0.163 C 
BRANCH  14  15
ATOM     15  OG  SER A   1     -42.246 -47.373  11.544  0.00  0.00    -0.380 OA
ATOM     16  H   SER A   1     -41.317 -47.676  11.386  0.00  0.00    +0.211 HD
ENDBRANCH  14  15
ENDBRANCH  11  14
ENDBRANCH   7  11
ENDBRANCH   6   8
BRANCH   6  17
ATOM     17  CB  ASN A   2     -38.421 -49.482  14.945  0.00  0.00    +0.114 C 
BRANCH  17  18
ATOM     18  CG  ASN A   2     -37.470 -48.506  15.598  0.00  0.00    +0.222 C 
ATOM     19  OD1 ASN A   2     -37.361 -48.474  16.830  0.00  0.00    -0.275 OA
ATOM     20  ND2 ASN A   2     -36.766 -47.711  14.788  0.00  0.00    -0.329 N 
ATOM     21 HD21 ASN A   2     -36.091 -47.028  15.188  0.00  0.00    +0.145 HD
ATOM     22 HD22 ASN A   2     -36.893 -47.775  13.758  0.00  0.00    +0.145 HD
ENDBRANCH  17  18
ENDBRANCH   6  17
ENDBRANCH   2   6
ENDBRANCH   1   4
BRANCH   1  23
ATOM     23  C   PHE A   3     -40.557 -51.180  10.063  0.00  0.00    +0.241 C 
ATOM     24  N   MET A   4     -40.185 -52.369   9.601  0.00  0.00    -0.297 N 
ATOM     25  H   MET A   4     -40.285 -53.215  10.197  0.00  0.00    +0.150 HD
ATOM     26  O   PHE A   3     -40.361 -50.142   9.438  0.00  0.00    -0.273 OA
BRANCH  24  27
ATOM     27  CA  MET A   4     -39.636 -52.483   8.253  0.00  0.00    +0.149 C 
BRANCH  27  28
ATOM     28  C   MET A   4     -40.743 -52.255   7.227  0.00  0.00    +0.241 C 
ATOM     29  O   MET A   4     -41.772 -52.933   7.250  0.00  0.00    -0.273 OA
ATOM     30  N   LEU A   5     -40.533 -51.282   6.343  0.00  0.00    -0.298 N 
ATOM     31  H   LEU A   5     -39.654 -50.731   6.411  0.00  0.00    +0.150 HD
BRANCH  30  32
ATOM     32  CA  LEU A   5     -41.479 -50.954   5.284  0.00  0.00    +0.137 C 
BRANCH  32  33
ATOM     33  C   LEU A   5     -40.736 -50.871   3.954  0.00  0.00    +0.227 C 
ATOM     34  O   LEU A   5     -39.609 -50.377   3.908  0.00  0.00    -0.286 OA
ENDBRANCH  32  33
BRANCH  32  35
ATOM     35  CB  LEU A   5     -42.199 -49.639   5.574  0.00  0.00    +0.028 C 
BRANCH  35  36
ATOM     36  CG  LEU A   5     -43.284 -49.688   6.656  0.00  0.00    +0.002 C 
ATOM     37  CD2 LEU A   5     -43.742 -48.288   7.027  0.00  0.00    +0.000 C 
ATOM     38  CD1 LEU A   5     -44.470 -50.519   6.166  0.00  0.00    +0.000 C 
ENDBRANCH  35  36
ENDBRANCH  32  35
ENDBRANCH  30  32
ENDBRANCH  27  28
BRANCH  27  39
ATOM     39  CB  MET A   4     -38.967 -53.842   8.036  0.00  0.00    +0.041 C 
BRANCH  39  40
ATOM     40  CG  MET A   4     -38.334 -53.998   6.657  0.00  0.00    +0.060 C 
BRANCH  40  41
ATOM     41  SD  MET A   4     -37.046 -52.776   6.344  0.00  0.00    -0.139 S 
ATOM     42  CE  MET A   4     -35.855 -53.264   7.590  0.00  0.00    +0.069 C 
ENDBRANCH  40  41
ENDBRANCH  39  40
ENDBRANCH  27  39
ENDBRANCH  24  27
ENDBRANCH   1  23
BRANCH   1  43
ATOM     43  CB  PHE A   3     -42.765 -50.956  11.133  0.00  0.00    +0.055 C 
BRANCH  43  44
ATOM     44  CG  PHE A   3     -43.635 -51.049  12.332  0.00  0.00    -0.020 A 
ATOM     45  CD2 PHE A   3     -44.164 -49.899  12.907  0.00  0.00    -0.004 A 
ATOM     46  CE2 PHE A   3     -44.985 -49.985  14.012  0.00  0.00    -0.000 A 
ATOM     47  CZ  PHE A   3     -45.305 -51.222  14.538  0.00  0.00    -0.000 A 
ATOM     48  CE1 PHE A   3     -44.790 -52.377  13.962  0.00  0.00    -0.000 A 
ATOM     49  CD1 PHE A   3     -43.967 -52.288  12.869  0.00  0.00    -0.004 A 
ENDBRANCH  43  44
ENDBRANCH   1  43
TORSDOF 21
REMARK  Name = ../refined-set-2016/4pfu/4pfu_pocket.pdb
REMARK  196 active torsions:
REMARK  status: ('A' for Active; 'I' for Inactive)
REMARK    1  A    between atoms: _1  and  _3
REMARK    2  A    between atoms: _3  and  _4
REMARK    3  A    between atoms: _3  and  _6
REMARK    4  A    between atoms: _6  and  _7
REMARK    5  A    between atoms: _12  and  _13
REMARK    6  A    between atoms: _15  and  _17
REMARK    7  A    between atoms: _17  and  _18
REMARK    8  A    between atoms: _20  and  _22
REMARK    9  A    between atoms: _22  and  _23
REMARK   10  A    between atoms: _25  and  _27
REMARK   11  A    between atoms: _27  and  _28
REMARK   12  A    between atoms: _27  and  _30
REMARK   13  A    between atoms: _30  and  _31
REMARK   14  A    between atoms: _33  and  _35
REMARK   15  A    between atoms: _35  and  _36
REMARK   16  A    between atoms: _35  and  _38
REMARK   17  A    between atoms: _38  and  _39
REMARK   18  A    between atoms: _42  and  _44
REMARK   19  A    between atoms: _44  and  _45
REMARK   20  A    between atoms: _44  and  _47
REMARK   21  A    between atoms: _47  and  _48
REMARK   22  A    between atoms: _59  and  _60
REMARK   23  A    between atoms: _65  and  _67
REMARK   24  A    between atoms: _67  and  _68
REMARK   25  A    between atoms: _67  and  _70
REMARK   26  A    between atoms: _70  and  _71
REMARK   27  A    between atoms: _73  and  _75
REMARK   28  A    between atoms: _75  and  _76
REMARK   29  A    between atoms: _75  and  _78
REMARK   30  A    between atoms: _78  and  _79
REMARK   31  A    between atoms: _84  and  _86
REMARK   32  A    between atoms: _86  and  _87
REMARK   33  A    between atoms: _86  and  _89
REMARK   34  A    between atoms: _89  and  _90
REMARK   35  A    between atoms: _95  and  _97
REMARK   36  A    between atoms: _97  and  _98
REMARK   37  A    between atoms: _101  and  _103
REMARK   38  A    between atoms: _103  and  _104
REMARK   39  A    between atoms: _103  and  _106
REMARK   40  A    between atoms: _106  and  _107
REMARK   41  A    between atoms: _109  and  _111
REMARK   42  A    between atoms: _111  and  _112
REMARK   43  A    between atoms: _111  and  _114
REMARK   44  A    between atoms: _114  and  _115
REMARK   45  A    between atoms: _120  and  _122
REMARK   46  A    between atoms: _122  and  _123
REMARK   47  A    between atoms: _122  and  _125
REMARK   48  A    between atoms: _125  and  _126
REMARK   49  A    between atoms: _132  and  _134
REMARK   50  A    between atoms: _134  and  _135
REMARK   51  A    between atoms: _134  and  _137
REMARK   52  A    between atoms: _137  and  _138
REMARK   53  A    between atoms: _138  and  _139
REMARK   54  A    between atoms: _141  and  _143
REMARK   55  A    between atoms: _143  and  _144
REMARK   56  A    between atoms: _143  and  _146
REMARK   57  A    between atoms: _146  and  _147
REMARK   58  A    between atoms: _150  and  _152
REMARK   59  A    between atoms: _152  and  _153
REMARK   60  A    between atoms: _152  and  _155
REMARK   61  A    between atoms: _155  and  _156
REMARK   62  A    between atoms: _158  and  _160
REMARK   63  A    between atoms: _160  and  _161
REMARK   64  A    between atoms: _160  and  _163
REMARK   65  A    between atoms: _163  and  _164
REMARK   66  A    between atoms: _167  and  _169
REMARK   67  A    between atoms: _169  and  _170
REMARK   68  A    between atoms: _169  and  _172
REMARK   69  A    between atoms: _175  and  _177
REMARK   70  A    between atoms: _177  and  _178
REMARK   71  A    between atoms: _177  and  _180
REMARK   72  A    between atoms: _183  and  _185
REMARK   73  A    between atoms: _185  and  _186
REMARK   74  A    between atoms: _185  and  _188
REMARK   75  A    between atoms: _188  and  _189
REMARK   76  A    between atoms: _194  and  _195
REMARK   77  A    between atoms: _197  and  _199
REMARK   78  A    between atoms: _199  and  _200
REMARK   79  A    between atoms: _199  and  _202
REMARK   80  A    between atoms: _205  and  _207
REMARK   81  A    between atoms: _207  and  _208
REMARK   82  A    between atoms: _207  and  _210
REMARK   83  A    between atoms: _213  and  _214
REMARK   84  A    between atoms: _219  and  _221
REMARK   85  A    between atoms: _221  and  _222
REMARK   86  A    between atoms: _221  and  _224
REMARK   87  A    between atoms: _224  and  _225
REMARK   88  A    between atoms: _230  and  _231
REMARK   89  A    between atoms: _233  and  _235
REMARK   90  A    between atoms: _235  and  _236
REMARK   91  A    between atoms: _238  and  _240
REMARK   92  A    between atoms: _240  and  _241
REMARK   93  A    between atoms: _240  and  _243
REMARK   94  A    between atoms: _243  and  _244
REMARK   95  A    between atoms: _254  and  _256
REMARK   96  A    between atoms: _256  and  _257
REMARK   97  A    between atoms: _256  and  _259
REMARK   98  A    between atoms: _259  and  _260
REMARK   99  A    between atoms: _263  and  _265
REMARK  100  A    between atoms: _265  and  _266
REMARK  101  A    between atoms: _265  and  _268
REMARK  102  A    between atoms: _268  and  _269
REMARK  103  A    between atoms: _272  and  _274
REMARK  104  A    between atoms: _274  and  _275
REMARK  105  A    between atoms: _274  and  _277
REMARK  106  A    between atoms: _277  and  _278
REMARK  107  A    between atoms: _288  and  _290
REMARK  108  A    between atoms: _290  and  _291
REMARK  109  A    between atoms: _290  and  _293
REMARK  110  A    between atoms: _293  and  _294
REMARK  111  A    between atoms: _294  and  _295
REMARK  112  A    between atoms: _297  and  _299
REMARK  113  A    between atoms: _299  and  _300
REMARK  114  A    between atoms: _299  and  _302
REMARK  115  A    between atoms: _302  and  _303
REMARK  116  A    between atoms: _305  and  _307
REMARK  117  A    between atoms: _307  and  _308
REMARK  118  A    between atoms: _307  and  _310
REMARK  119  A    between atoms: _310  and  _311
REMARK  120  A    between atoms: _316  and  _317
REMARK  121  A    between atoms: _319  and  _321
REMARK  122  A    between atoms: _321  and  _322
REMARK  123  A    between atoms: _321  and  _324
REMARK  124  A    between atoms: _324  and  _325
REMARK  125  A    between atoms: _330  and  _331
REMARK  126  A    between atoms: _333  and  _335
REMARK  127  A    between atoms: _335  and  _336
REMARK  128  A    between atoms: _335  and  _338
REMARK  129  A    between atoms: _338  and  _339
REMARK  130  A    between atoms: _339  and  _340
REMARK  131  A    between atoms: _342  and  _344
REMARK  132  A    between atoms: _344  and  _345
REMARK  133  A    between atoms: _344  and  _347
REMARK  134  A    between atoms: _347  and  _348
REMARK  135  A    between atoms: _353  and  _354
REMARK  136  A    between atoms: _356  and  _358
REMARK  137  A    between atoms: _358  and  _359
REMARK  138  A    between atoms: _358  and  _361
REMARK  139  A    between atoms: _361  and  _362
REMARK  140  A    between atoms: _362  and  _363
REMARK  141  A    between atoms: _365  and  _367
REMARK  142  A    between atoms: _367  and  _368
REMARK  143  A    between atoms: _367  and  _370
REMARK  144  A    between atoms: _370  and  _371
REMARK  145  A    between atoms: _376  and  _378
REMARK  146  A    between atoms: _378  and  _379
REMARK  147  A    between atoms: _382  and  _384
REMARK  148  A    between atoms: _384  and  _385
REMARK  149  A    between atoms: _384  and  _387
REMARK  150  A    between atoms: _387  and  _388
REMARK  151  A    between atoms: _393  and  _395
REMARK  152  A    between atoms: _395  and  _396
REMARK  153  A    between atoms: _398  and  _400
REMARK  154  A    between atoms: _400  and  _401
REMARK  155  A    between atoms: _400  and  _403
REMARK  156  A    between atoms: _403  and  _404
REMARK  157  A    between atoms: _407  and  _409
REMARK  158  A    between atoms: _409  and  _410
REMARK  159  A    between atoms: _412  and  _414
REMARK  160  A    between atoms: _414  and  _415
REMARK  161  A    between atoms: _414  and  _417
REMARK  162  A    between atoms: _417  and  _418
REMARK  163  A    between atoms: _428  and  _430
REMARK  164  A    between atoms: _430  and  _431
REMARK  165  A    between atoms: _433  and  _435
REMARK  166  A    between atoms: _435  and  _436
REMARK  167  A    between atoms: _439  and  _441
REMARK  168  A    between atoms: _441  and  _442
REMARK  169  A    between atoms: _441  and  _444
REMARK  170  A    between atoms: _444  and  _445
REMARK  171  A    between atoms: _445  and  _446
REMARK  172  A    between atoms: _448  and  _450
REMARK  173  A    between atoms: _450  and  _451
REMARK  174  A    between atoms: _454  and  _456
REMARK  175  A    between atoms: _456  and  _457
REMARK  176  A    between atoms: _456  and  _459
REMARK  177  A    between atoms: _459  and  _460
REMARK  178  A    between atoms: _466  and  _468
REMARK  179  A    between atoms: _468  and  _469
REMARK  180  A    between atoms: _468  and  _471
REMARK  181  A    between atoms: _473  and  _475
REMARK  182  A    between atoms: _475  and  _476
REMARK  183  A    between atoms: _478  and  _480
REMARK  184  A    between atoms: _480  and  _481
REMARK  185  A    between atoms: _480  and  _483
REMARK  186  A    between atoms: _483  and  _484
REMARK  187  A    between atoms: _494  and  _496
REMARK  188  A    between atoms: _496  and  _497
REMARK  189  A    between atoms: _500  and  _502
REMARK  190  A    between atoms: _502  and  _503
REMARK  191  A    between atoms: _502  and  _505
REMARK  192  A    between atoms: _505  and  _506
REMARK  193  A    between atoms: _511  and  _513
REMARK  194  A    between atoms: _513  and  _514
REMARK  195  A    between atoms: _513  and  _516
REMARK  196  A    between atoms: _516  and  _517
REMARK                            x       y       z     vdW  Elec       q    Type
REMARK                         _______ _______ _______ _____ _____    ______ ____
ROOT
ATOM      1  C   THR A   2     -27.342 -57.308  12.679  0.00  0.00    +0.243 C 
ATOM      2  N   VAL A   3     -26.897 -58.474  13.132  0.00  0.00    -0.297 N 
ATOM      3  H   VAL A   3     -26.798 -58.623  14.156  0.00  0.00    +0.150 HD
ATOM      4  O   THR A   2     -27.291 -56.996  11.485  0.00  0.00    -0.273 OA
ENDROOT
BRANCH   1   5
ATOM      5  CA  THR A   2     -27.950 -56.375  13.727  0.00  0.00    +0.176 C 
BRANCH   5   8
ATOM      6  C   SER A   1     -27.801 -53.989  14.166  0.00  0.00    +0.241 C 
ATOM      7  O   SER A   1     -27.387 -54.192  15.301  0.00  0.00    -0.274 OA
ATOM      8  N   THR A   2     -28.036 -54.975  13.302  0.00  0.00    -0.295 N 
ATOM      9  H   THR A   2     -28.283 -54.750  12.317  0.00  0.00    +0.150 HD
BRANCH   6  10
ATOM     10  CA  SER A   1     -28.142 -52.565  13.722  0.00  0.00    +0.174 C 
BRANCH  10  11
ATOM     11  N   SER A   1     -28.117 -52.360  12.275  0.00  0.00    -0.236 NA
ATOM     12  H   SER A   1     -28.746 -52.922  11.667  0.00  0.00    +0.142 HD
ENDBRANCH  10  11
BRANCH  10  13
ATOM     13  CB  SER A   1     -29.532 -52.226  14.273  0.00  0.00    +0.163 C 
BRANCH  13  14
ATOM     14  OG  SER A   1     -30.501 -53.088  13.665  0.00  0.00    -0.380 OA
ATOM     15  H   SER A   1     -31.400 -52.872  14.018  0.00  0.00    +0.211 HD
ENDBRANCH  13  14
ENDBRANCH  10  13
ENDBRANCH   6  10
ENDBRANCH   5   8
BRANCH   5  16
ATOM     16  CB  THR A   2     -29.341 -56.942  14.079  0.00  0.00    +0.137 C 
ATOM     17  CG2 THR A   2     -29.864 -56.371  15.388  0.00  0.00    +0.034 C 
BRANCH  16  18
ATOM     18  OG1 THR A   2     -30.252 -56.625  13.025  0.00  0.00    -0.382 OA
ATOM     19  HG1 THR A   2     -31.147 -56.986  13.244  0.00  0.00    +0.210 HD
ENDBRANCH  16  18
ENDBRANCH   5  16
ENDBRANCH   1   5
BRANCH   2  20
ATOM     20  CA  VAL A   3     -26.546 -59.544  12.213  0.00  0.00    +0.149 C 
BRANCH  20  21
ATOM     21  C   VAL A   3     -27.744 -60.460  12.113  0.00  0.00    +0.241 C 
ATOM     22  O   VAL A   3     -28.134 -61.074  13.103  0.00  0.00    -0.273 OA
ATOM     23  N   VAL A   4     -28.332 -60.548  10.923  0.00  0.00    -0.298 N 
ATOM     24  H   VAL A   4     -27.967 -59.990  10.125  0.00  0.00    +0.150 HD
BRANCH  23  25
ATOM     25  CA  VAL A   4     -29.486 -61.421  10.727  0.00  0.00    +0.137 C 
BRANCH  25  26
ATOM     26  CB  VAL A   4     -30.540 -60.805   9.772  0.00  0.00    +0.026 C 
ATOM     27  CG2 VAL A   4     -31.011 -59.457  10.299  0.00  0.00    +0.002 C 
ATOM     28  CG1 VAL A   4     -31.732 -61.758   9.586  0.00  0.00    +0.002 C 
ENDBRANCH  25  26
BRANCH  25  29
ATOM     29  C   VAL A   4     -28.993 -62.734  10.161  0.00  0.00    +0.227 C 
ATOM     30  O   VAL A   4     -28.268 -62.743   9.176  0.00  0.00    -0.286 OA
ENDBRANCH  25  29
ENDBRANCH  23  25
ENDBRANCH  20  21
BRANCH  20  31
ATOM     31  CB  VAL A   3     -25.328 -60.356  12.679  0.00  0.00    +0.027 C 
ATOM     32  CG2 VAL A   3     -24.191 -59.428  13.103  0.00  0.00    +0.002 C 
ATOM     33  CG1 VAL A   3     -24.889 -61.305  11.583  0.00  0.00    +0.002 C 
ENDBRANCH  20  31
ENDBRANCH   2  20
TORSDOF 14
REMARK  Name = ../refined-set-2016/4pfu/4pfu_pocket.pdb
REMARK  196 active torsions:
REMARK  status: ('A' for Active; 'I' for Inactive)
REMARK    1  A    between atoms: _1  and  _3
REMARK    2  A    between atoms: _3  and  _4
REMARK    3  A    between atoms: _3  and  _6
REMARK    4  A    between atoms: _6  and  _7
REMARK    5  A    between atoms: _12  and  _13
REMARK    6  A    between atoms: _15  and  _17
REMARK    7  A    between atoms: _17  and  _18
REMARK    8  A    between atoms: _20  and  _22
REMARK    9  A    between atoms: _22  and  _23
REMARK   10  A    between atoms: _25  and  _27
REMARK   11  A    between atoms: _27  and  _28
REMARK   12  A    between atoms: _27  and  _30
REMARK   13  A    between atoms: _30  and  _31
REMARK   14  A    between atoms: _33  and  _35
REMARK   15  A    between atoms: _35  and  _36
REMARK   16  A    between atoms: _35  and  _38
REMARK   17  A    between atoms: _38  and  _39
REMARK   18  A    between atoms: _42  and  _44
REMARK   19  A    between atoms: _44  and  _45
REMARK   20  A    between atoms: _44  and  _47
REMARK   21  A    between atoms: _47  and  _48
REMARK   22  A    between atoms: _59  and  _60
REMARK   23  A    between atoms: _65  and  _67
REMARK   24  A    between atoms: _67  and  _68
REMARK   25  A    between atoms: _67  and  _70
REMARK   26  A    between atoms: _70  and  _71
REMARK   27  A    between atoms: _73  and  _75
REMARK   28  A    between atoms: _75  and  _76
REMARK   29  A    between atoms: _75  and  _78
REMARK   30  A    between atoms: _78  and  _79
REMARK   31  A    between atoms: _84  and  _86
REMARK   32  A    between atoms: _86  and  _87
REMARK   33  A    between atoms: _86  and  _89
REMARK   34  A    between atoms: _89  and  _90
REMARK   35  A    between atoms: _95  and  _97
REMARK   36  A    between atoms: _97  and  _98
REMARK   37  A    between atoms: _101  and  _103
REMARK   38  A    between atoms: _103  and  _104
REMARK   39  A    between atoms: _103  and  _106
REMARK   40  A    between atoms: _106  and  _107
REMARK   41  A    between atoms: _109  and  _111
REMARK   42  A    between atoms: _111  and  _112
REMARK   43  A    between atoms: _111  and  _114
REMARK   44  A    between atoms: _114  and  _115
REMARK   45  A    between atoms: _120  and  _122
REMARK   46  A    between atoms: _122  and  _123
REMARK   47  A    between atoms: _122  and  _125
REMARK   48  A    between atoms: _125  and  _126
REMARK   49  A    between atoms: _132  and  _134
REMARK   50  A    between atoms: _134  and  _135
REMARK   51  A    between atoms: _134  and  _137
REMARK   52  A    between atoms: _137  and  _138
REMARK   53  A    between atoms: _138  and  _139
REMARK   54  A    between atoms: _141  and  _143
REMARK   55  A    between atoms: _143  and  _144
REMARK   56  A    between atoms: _143  and  _146
REMARK   57  A    between atoms: _146  and  _147
REMARK   58  A    between atoms: _150  and  _152
REMARK   59  A    between atoms: _152  and  _153
REMARK   60  A    between atoms: _152  and  _155
REMARK   61  A    between atoms: _155  and  _156
REMARK   62  A    between atoms: _158  and  _160
REMARK   63  A    between atoms: _160  and  _161
REMARK   64  A    between atoms: _160  and  _163
REMARK   65  A    between atoms: _163  and  _164
REMARK   66  A    between atoms: _167  and  _169
REMARK   67  A    between atoms: _169  and  _170
REMARK   68  A    between atoms: _169  and  _172
REMARK   69  A    between atoms: _175  and  _177
REMARK   70  A    between atoms: _177  and  _178
REMARK   71  A    between atoms: _177  and  _180
REMARK   72  A    between atoms: _183  and  _185
REMARK   73  A    between atoms: _185  and  _186
REMARK   74  A    between atoms: _185  and  _188
REMARK   75  A    between atoms: _188  and  _189
REMARK   76  A    between atoms: _194  and  _195
REMARK   77  A    between atoms: _197  and  _199
REMARK   78  A    between atoms: _199  and  _200
REMARK   79  A    between atoms: _199  and  _202
REMARK   80  A    between atoms: _205  and  _207
REMARK   81  A    between atoms: _207  and  _208
REMARK   82  A    between atoms: _207  and  _210
REMARK   83  A    between atoms: _213  and  _214
REMARK   84  A    between atoms: _219  and  _221
REMARK   85  A    between atoms: _221  and  _222
REMARK   86  A    between atoms: _221  and  _224
REMARK   87  A    between atoms: _224  and  _225
REMARK   88  A    between atoms: _230  and  _231
REMARK   89  A    between atoms: _233  and  _235
REMARK   90  A    between atoms: _235  and  _236
REMARK   91  A    between atoms: _238  and  _240
REMARK   92  A    between atoms: _240  and  _241
REMARK   93  A    between atoms: _240  and  _243
REMARK   94  A    between atoms: _243  and  _244
REMARK   95  A    between atoms: _254  and  _256
REMARK   96  A    between atoms: _256  and  _257
REMARK   97  A    between atoms: _256  and  _259
REMARK   98  A    between atoms: _259  and  _260
REMARK   99  A    between atoms: _263  and  _265
REMARK  100  A    between atoms: _265  and  _266
REMARK  101  A    between atoms: _265  and  _268
REMARK  102  A    between atoms: _268  and  _269
REMARK  103  A    between atoms: _272  and  _274
REMARK  104  A    between atoms: _274  and  _275
REMARK  105  A    between atoms: _274  and  _277
REMARK  106  A    between atoms: _277  and  _278
REMARK  107  A    between atoms: _288  and  _290
REMARK  108  A    between atoms: _290  and  _291
REMARK  109  A    between atoms: _290  and  _293
REMARK  110  A    between atoms: _293  and  _294
REMARK  111  A    between atoms: _294  and  _295
REMARK  112  A    between atoms: _297  and  _299
REMARK  113  A    between atoms: _299  and  _300
REMARK  114  A    between atoms: _299  and  _302
REMARK  115  A    between atoms: _302  and  _303
REMARK  116  A    between atoms: _305  and  _307
REMARK  117  A    between atoms: _307  and  _308
REMARK  118  A    between atoms: _307  and  _310
REMARK  119  A    between atoms: _310  and  _311
REMARK  120  A    between atoms: _316  and  _317
REMARK  121  A    between atoms: _319  and  _321
REMARK  122  A    between atoms: _321  and  _322
REMARK  123  A    between atoms: _321  and  _324
REMARK  124  A    between atoms: _324  and  _325
REMARK  125  A    between atoms: _330  and  _331
REMARK  126  A    between atoms: _333  and  _335
REMARK  127  A    between atoms: _335  and  _336
REMARK  128  A    between atoms: _335  and  _338
REMARK  129  A    between atoms: _338  and  _339
REMARK  130  A    between atoms: _339  and  _340
REMARK  131  A    between atoms: _342  and  _344
REMARK  132  A    between atoms: _344  and  _345
REMARK  133  A    between atoms: _344  and  _347
REMARK  134  A    between atoms: _347  and  _348
REMARK  135  A    between atoms: _353  and  _354
REMARK  136  A    between atoms: _356  and  _358
REMARK  137  A    between atoms: _358  and  _359
REMARK  138  A    between atoms: _358  and  _361
REMARK  139  A    between atoms: _361  and  _362
REMARK  140  A    between atoms: _362  and  _363
REMARK  141  A    between atoms: _365  and  _367
REMARK  142  A    between atoms: _367  and  _368
REMARK  143  A    between atoms: _367  and  _370
REMARK  144  A    between atoms: _370  and  _371
REMARK  145  A    between atoms: _376  and  _378
REMARK  146  A    between atoms: _378  and  _379
REMARK  147  A    between atoms: _382  and  _384
REMARK  148  A    between atoms: _384  and  _385
REMARK  149  A    between atoms: _384  and  _387
REMARK  150  A    between atoms: _387  and  _388
REMARK  151  A    between atoms: _393  and  _395
REMARK  152  A    between atoms: _395  and  _396
REMARK  153  A    between atoms: _398  and  _400
REMARK  154  A    between atoms: _400  and  _401
REMARK  155  A    between atoms: _400  and  _403
REMARK  156  A    between atoms: _403  and  _404
REMARK  157  A    between atoms: _407  and  _409
REMARK  158  A    between atoms: _409  and  _410
REMARK  159  A    between atoms: _412  and  _414
REMARK  160  A    between atoms: _414  and  _415
REMARK  161  A    between atoms: _414  and  _417
REMARK  162  A    between atoms: _417  and  _418
REMARK  163  A    between atoms: _428  and  _430
REMARK  164  A    between atoms: _430  and  _431
REMARK  165  A    between atoms: _433  and  _435
REMARK  166  A    between atoms: _435  and  _436
REMARK  167  A    between atoms: _439  and  _441
REMARK  168  A    between atoms: _441  and  _442
REMARK  169  A    between atoms: _441  and  _444
REMARK  170  A    between atoms: _444  and  _445
REMARK  171  A    between atoms: _445  and  _446
REMARK  172  A    between atoms: _448  and  _450
REMARK  173  A    between atoms: _450  and  _451
REMARK  174  A    between atoms: _454  and  _456
REMARK  175  A    between atoms: _456  and  _457
REMARK  176  A    between atoms: _456  and  _459
REMARK  177  A    between atoms: _459  and  _460
REMARK  178  A    between atoms: _466  and  _468
REMARK  179  A    between atoms: _468  and  _469
REMARK  180  A    between atoms: _468  and  _471
REMARK  181  A    between atoms: _473  and  _475
REMARK  182  A    between atoms: _475  and  _476
REMARK  183  A    between atoms: _478  and  _480
REMARK  184  A    between atoms: _480  and  _481
REMARK  185  A    between atoms: _480  and  _483
REMARK  186  A    between atoms: _483  and  _484
REMARK  187  A    between atoms: _494  and  _496
REMARK  188  A    between atoms: _496  and  _497
REMARK  189  A    between atoms: _500  and  _502
REMARK  190  A    between atoms: _502  and  _503
REMARK  191  A    between atoms: _502  and  _505
REMARK  192  A    between atoms: _505  and  _506
REMARK  193  A    between atoms: _511  and  _513
REMARK  194  A    between atoms: _513  and  _514
REMARK  195  A    between atoms: _513  and  _516
REMARK  196  A    between atoms: _516  and  _517
REMARK                            x       y       z     vdW  Elec       q    Type
REMARK                         _______ _______ _______ _____ _____    ______ ____
ROOT
ATOM      1  CG  TYR A   1     -34.163 -56.036   3.046  0.00  0.00    -0.020 A 
ATOM      2  CD2 TYR A   1     -34.955 -55.479   4.048  0.00  0.00    -0.001 A 
ATOM      3  CE2 TYR A   1     -35.320 -56.216   5.165  0.00  0.00    +0.036 A 
ATOM      4  CZ  TYR A   1     -34.892 -57.527   5.285  0.00  0.00    +0.134 A 
ATOM      5  CE1 TYR A   1     -34.099 -58.107   4.308  0.00  0.00    +0.036 A 
ATOM      6  CD1 TYR A   1     -33.744 -57.357   3.185  0.00  0.00    -0.001 A 
ENDROOT
BRANCH   4   7
ATOM      7  OH  TYR A   1     -35.250 -58.249   6.395  0.00  0.00    -0.506 OA
ATOM      8  HH  TYR A   1     -35.812 -57.687   6.985  0.00  0.00    +0.292 HD
ENDBRANCH   4   7
BRANCH   1   9
ATOM      9  CB  TYR A   1     -33.789 -55.226   1.835  0.00  0.00    +0.051 C 
BRANCH   9  10
ATOM     10  CA  TYR A   1     -34.970 -55.036   0.875  0.00  0.00    +0.137 C 
BRANCH  10  11
ATOM     11  N   TYR A   1     -35.317 -56.310   0.262  0.00  0.00    -0.239 NA
ATOM     12  H   TYR A   1     -34.558 -56.915  -0.113  0.00  0.00    +0.142 HD
ENDBRANCH  10  11
BRANCH  10  13
ATOM     13  C   TYR A   1     -34.633 -53.931  -0.109  0.00  0.00    +0.224 C 
ATOM     14  O   TYR A   1     -34.375 -52.804   0.313  0.00  0.00    -0.287 OA
ENDBRANCH  10  13
ENDBRANCH   9  10
ENDBRANCH   1   9
TORSDOF 5
REMARK  Name = ../refined-set-2016/4pfu/4pfu_pocket.pdb
REMARK  196 active torsions:
REMARK  status: ('A' for Active; 'I' for Inactive)
REMARK    1  A    between atoms: _1  and  _3
REMARK    2  A    between atoms: _3  and  _4
REMARK    3  A    between atoms: _3  and  _6
REMARK    4  A    between atoms: _6  and  _7
REMARK    5  A    between atoms: _12  and  _13
REMARK    6  A    between atoms: _15  and  _17
REMARK    7  A    between atoms: _17  and  _18
REMARK    8  A    between atoms: _20  and  _22
REMARK    9  A    between atoms: _22  and  _23
REMARK   10  A    between atoms: _25  and  _27
REMARK   11  A    between atoms: _27  and  _28
REMARK   12  A    between atoms: _27  and  _30
REMARK   13  A    between atoms: _30  and  _31
REMARK   14  A    between atoms: _33  and  _35
REMARK   15  A    between atoms: _35  and  _36
REMARK   16  A    between atoms: _35  and  _38
REMARK   17  A    between atoms: _38  and  _39
REMARK   18  A    between atoms: _42  and  _44
REMARK   19  A    between atoms: _44  and  _45
REMARK   20  A    between atoms: _44  and  _47
REMARK   21  A    between atoms: _47  and  _48
REMARK   22  A    between atoms: _59  and  _60
REMARK   23  A    between atoms: _65  and  _67
REMARK   24  A    between atoms: _67  and  _68
REMARK   25  A    between atoms: _67  and  _70
REMARK   26  A    between atoms: _70  and  _71
REMARK   27  A    between atoms: _73  and  _75
REMARK   28  A    between atoms: _75  and  _76
REMARK   29  A    between atoms: _75  and  _78
REMARK   30  A    between atoms: _78  and  _79
REMARK   31  A    between atoms: _84  and  _86
REMARK   32  A    between atoms: _86  and  _87
REMARK   33  A    between atoms: _86  and  _89
REMARK   34  A    between atoms: _89  and  _90
REMARK   35  A    between atoms: _95  and  _97
REMARK   36  A    between atoms: _97  and  _98
REMARK   37  A    between atoms: _101  and  _103
REMARK   38  A    between atoms: _103  and  _104
REMARK   39  A    between atoms: _103  and  _106
REMARK   40  A    between atoms: _106  and  _107
REMARK   41  A    between atoms: _109  and  _111
REMARK   42  A    between atoms: _111  and  _112
REMARK   43  A    between atoms: _111  and  _114
REMARK   44  A    between atoms: _114  and  _115
REMARK   45  A    between atoms: _120  and  _122
REMARK   46  A    between atoms: _122  and  _123
REMARK   47  A    between atoms: _122  and  _125
REMARK   48  A    between atoms: _125  and  _126
REMARK   49  A    between atoms: _132  and  _134
REMARK   50  A    between atoms: _134  and  _135
REMARK   51  A    between atoms: _134  and  _137
REMARK   52  A    between atoms: _137  and  _138
REMARK   53  A    between atoms: _138  and  _139
REMARK   54  A    between atoms: _141  and  _143
REMARK   55  A    between atoms: _143  and  _144
REMARK   56  A    between atoms: _143  and  _146
REMARK   57  A    between atoms: _146  and  _147
REMARK   58  A    between atoms: _150  and  _152
REMARK   59  A    between atoms: _152  and  _153
REMARK   60  A    between atoms: _152  and  _155
REMARK   61  A    between atoms: _155  and  _156
REMARK   62  A    between atoms: _158  and  _160
REMARK   63  A    between atoms: _160  and  _161
REMARK   64  A    between atoms: _160  and  _163
REMARK   65  A    between atoms: _163  and  _164
REMARK   66  A    between atoms: _167  and  _169
REMARK   67  A    between atoms: _169  and  _170
REMARK   68  A    between atoms: _169  and  _172
REMARK   69  A    between atoms: _175  and  _177
REMARK   70  A    between atoms: _177  and  _178
REMARK   71  A    between atoms: _177  and  _180
REMARK   72  A    between atoms: _183  and  _185
REMARK   73  A    between atoms: _185  and  _186
REMARK   74  A    between atoms: _185  and  _188
REMARK   75  A    between atoms: _188  and  _189
REMARK   76  A    between atoms: _194  and  _195
REMARK   77  A    between atoms: _197  and  _199
REMARK   78  A    between atoms: _199  and  _200
REMARK   79  A    between atoms: _199  and  _202
REMARK   80  A    between atoms: _205  and  _207
REMARK   81  A    between atoms: _207  and  _208
REMARK   82  A    between atoms: _207  and  _210
REMARK   83  A    between atoms: _213  and  _214
REMARK   84  A    between atoms: _219  and  _221
REMARK   85  A    between atoms: _221  and  _222
REMARK   86  A    between atoms: _221  and  _224
REMARK   87  A    between atoms: _224  and  _225
REMARK   88  A    between atoms: _230  and  _231
REMARK   89  A    between atoms: _233  and  _235
REMARK   90  A    between atoms: _235  and  _236
REMARK   91  A    between atoms: _238  and  _240
REMARK   92  A    between atoms: _240  and  _241
REMARK   93  A    between atoms: _240  and  _243
REMARK   94  A    between atoms: _243  and  _244
REMARK   95  A    between atoms: _254  and  _256
REMARK   96  A    between atoms: _256  and  _257
REMARK   97  A    between atoms: _256  and  _259
REMARK   98  A    between atoms: _259  and  _260
REMARK   99  A    between atoms: _263  and  _265
REMARK  100  A    between atoms: _265  and  _266
REMARK  101  A    between atoms: _265  and  _268
REMARK  102  A    between atoms: _268  and  _269
REMARK  103  A    between atoms: _272  and  _274
REMARK  104  A    between atoms: _274  and  _275
REMARK  105  A    between atoms: _274  and  _277
REMARK  106  A    between atoms: _277  and  _278
REMARK  107  A    between atoms: _288  and  _290
REMARK  108  A    between atoms: _290  and  _291
REMARK  109  A    between atoms: _290  and  _293
REMARK  110  A    between atoms: _293  and  _294
REMARK  111  A    between atoms: _294  and  _295
REMARK  112  A    between atoms: _297  and  _299
REMARK  113  A    between atoms: _299  and  _300
REMARK  114  A    between atoms: _299  and  _302
REMARK  115  A    between atoms: _302  and  _303
REMARK  116  A    between atoms: _305  and  _307
REMARK  117  A    between atoms: _307  and  _308
REMARK  118  A    between atoms: _307  and  _310
REMARK  119  A    between atoms: _310  and  _311
REMARK  120  A    between atoms: _316  and  _317
REMARK  121  A    between atoms: _319  and  _321
REMARK  122  A    between atoms: _321  and  _322
REMARK  123  A    between atoms: _321  and  _324
REMARK  124  A    between atoms: _324  and  _325
REMARK  125  A    between atoms: _330  and  _331
REMARK  126  A    between atoms: _333  and  _335
REMARK  127  A    between atoms: _335  and  _336
REMARK  128  A    between atoms: _335  and  _338
REMARK  129  A    between atoms: _338  and  _339
REMARK  130  A    between atoms: _339  and  _340
REMARK  131  A    between atoms: _342  and  _344
REMARK  132  A    between atoms: _344  and  _345
REMARK  133  A    between atoms: _344  and  _347
REMARK  134  A    between atoms: _347  and  _348
REMARK  135  A    between atoms: _353  and  _354
REMARK  136  A    between atoms: _356  and  _358
REMARK  137  A    between atoms: _358  and  _359
REMARK  138  A    between atoms: _358  and  _361
REMARK  139  A    between atoms: _361  and  _362
REMARK  140  A    between atoms: _362  and  _363
REMARK  141  A    between atoms: _365  and  _367
REMARK  142  A    between atoms: _367  and  _368
REMARK  143  A    between atoms: _367  and  _370
REMARK  144  A    between atoms: _370  and  _371
REMARK  145  A    between atoms: _376  and  _378
REMARK  146  A    between atoms: _378  and  _379
REMARK  147  A    between atoms: _382  and  _384
REMARK  148  A    between atoms: _384  and  _385
REMARK  149  A    between atoms: _384  and  _387
REMARK  150  A    between atoms: _387  and  _388
REMARK  151  A    between atoms: _393  and  _395
REMARK  152  A    between atoms: _395  and  _396
REMARK  153  A    between atoms: _398  and  _400
REMARK  154  A    between atoms: _400  and  _401
REMARK  155  A    between atoms: _400  and  _403
REMARK  156  A    between atoms: _403  and  _404
REMARK  157  A    between atoms: _407  and  _409
REMARK  158  A    between atoms: _409  and  _410
REMARK  159  A    between atoms: _412  and  _414
REMARK  160  A    between atoms: _414  and  _415
REMARK  161  A    between atoms: _414  and  _417
REMARK  162  A    between atoms: _417  and  _418
REMARK  163  A    between atoms: _428  and  _430
REMARK  164  A    between atoms: _430  and  _431
REMARK  165  A    between atoms: _433  and  _435
REMARK  166  A    between atoms: _435  and  _436
REMARK  167  A    between atoms: _439  and  _441
REMARK  168  A    between atoms: _441  and  _442
REMARK  169  A    between atoms: _441  and  _444
REMARK  170  A    between atoms: _444  and  _445
REMARK  171  A    between atoms: _445  and  _446
REMARK  172  A    between atoms: _448  and  _450
REMARK  173  A    between atoms: _450  and  _451
REMARK  174  A    between atoms: _454  and  _456
REMARK  175  A    between atoms: _456  and  _457
REMARK  176  A    between atoms: _456  and  _459
REMARK  177  A    between atoms: _459  and  _460
REMARK  178  A    between atoms: _466  and  _468
REMARK  179  A    between atoms: _468  and  _469
REMARK  180  A    between atoms: _468  and  _471
REMARK  181  A    between atoms: _473  and  _475
REMARK  182  A    between atoms: _475  and  _476
REMARK  183  A    between atoms: _478  and  _480
REMARK  184  A    between atoms: _480  and  _481
REMARK  185  A    between atoms: _480  and  _483
REMARK  186  A    between atoms: _483  and  _484
REMARK  187  A    between atoms: _494  and  _496
REMARK  188  A    between atoms: _496  and  _497
REMARK  189  A    between atoms: _500  and  _502
REMARK  190  A    between atoms: _502  and  _503
REMARK  191  A    between atoms: _502  and  _505
REMARK  192  A    between atoms: _505  and  _506
REMARK  193  A    between atoms: _511  and  _513
REMARK  194  A    between atoms: _513  and  _514
REMARK  195  A    between atoms: _513  and  _516
REMARK  196  A    between atoms: _516  and  _517
REMARK                            x       y       z     vdW  Elec       q    Type
REMARK                         _______ _______ _______ _____ _____    ______ ____
ROOT
ATOM      1  CA  VAL A   1     -29.483 -53.619   3.713  0.00  0.00    +0.133 C 
ENDROOT
BRANCH   1   2
ATOM      2  CB  VAL A   1     -30.117 -54.885   4.328  0.00  0.00    +0.023 C 
ATOM      3  CG2 VAL A   1     -31.371 -54.551   5.102  0.00  0.00    +0.002 C 
ATOM      4  CG1 VAL A   1     -30.371 -55.955   3.242  0.00  0.00    +0.002 C 
ENDBRANCH   1   2
BRANCH   1   5
ATOM      5  N   VAL A   1     -30.374 -52.911   2.776  0.00  0.00    -0.239 NA
ATOM      6  H   VAL A   1     -30.477 -53.275   1.807  0.00  0.00    +0.142 HD
ENDBRANCH   1   5
BRANCH   1   7
ATOM      7  C   VAL A   1     -28.201 -54.056   3.014  0.00  0.00    +0.224 C 
ATOM      8  O   VAL A   1     -28.152 -54.116   1.781  0.00  0.00    -0.287 OA
ENDBRANCH   1   7
TORSDOF 3
REMARK  Name = ../refined-set-2016/4pfu/4pfu_pocket.pdb
REMARK  196 active torsions:
REMARK  status: ('A' for Active; 'I' for Inactive)
REMARK    1  A    between atoms: _1  and  _3
REMARK    2  A    between atoms: _3  and  _4
REMARK    3  A    between atoms: _3  and  _6
REMARK    4  A    between atoms: _6  and  _7
REMARK    5  A    between atoms: _12  and  _13
REMARK    6  A    between atoms: _15  and  _17
REMARK    7  A    between atoms: _17  and  _18
REMARK    8  A    between atoms: _20  and  _22
REMARK    9  A    between atoms: _22  and  _23
REMARK   10  A    between atoms: _25  and  _27
REMARK   11  A    between atoms: _27  and  _28
REMARK   12  A    between atoms: _27  and  _30
REMARK   13  A    between atoms: _30  and  _31
REMARK   14  A    between atoms: _33  and  _35
REMARK   15  A    between atoms: _35  and  _36
REMARK   16  A    between atoms: _35  and  _38
REMARK   17  A    between atoms: _38  and  _39
REMARK   18  A    between atoms: _42  and  _44
REMARK   19  A    between atoms: _44  and  _45
REMARK   20  A    between atoms: _44  and  _47
REMARK   21  A    between atoms: _47  and  _48
REMARK   22  A    between atoms: _59  and  _60
REMARK   23  A    between atoms: _65  and  _67
REMARK   24  A    between atoms: _67  and  _68
REMARK   25  A    between atoms: _67  and  _70
REMARK   26  A    between atoms: _70  and  _71
REMARK   27  A    between atoms: _73  and  _75
REMARK   28  A    between atoms: _75  and  _76
REMARK   29  A    between atoms: _75  and  _78
REMARK   30  A    between atoms: _78  and  _79
REMARK   31  A    between atoms: _84  and  _86
REMARK   32  A    between atoms: _86  and  _87
REMARK   33  A    between atoms: _86  and  _89
REMARK   34  A    between atoms: _89  and  _90
REMARK   35  A    between atoms: _95  and  _97
REMARK   36  A    between atoms: _97  and  _98
REMARK   37  A    between atoms: _101  and  _103
REMARK   38  A    between atoms: _103  and  _104
REMARK   39  A    between atoms: _103  and  _106
REMARK   40  A    between atoms: _106  and  _107
REMARK   41  A    between atoms: _109  and  _111
REMARK   42  A    between atoms: _111  and  _112
REMARK   43  A    between atoms: _111  and  _114
REMARK   44  A    between atoms: _114  and  _115
REMARK   45  A    between atoms: _120  and  _122
REMARK   46  A    between atoms: _122  and  _123
REMARK   47  A    between atoms: _122  and  _125
REMARK   48  A    between atoms: _125  and  _126
REMARK   49  A    between atoms: _132  and  _134
REMARK   50  A    between atoms: _134  and  _135
REMARK   51  A    between atoms: _134  and  _137
REMARK   52  A    between atoms: _137  and  _138
REMARK   53  A    between atoms: _138  and  _139
REMARK   54  A    between atoms: _141  and  _143
REMARK   55  A    between atoms: _143  and  _144
REMARK   56  A    between atoms: _143  and  _146
REMARK   57  A    between atoms: _146  and  _147
REMARK   58  A    between atoms: _150  and  _152
REMARK   59  A    between atoms: _152  and  _153
REMARK   60  A    between atoms: _152  and  _155
REMARK   61  A    between atoms: _155  and  _156
REMARK   62  A    between atoms: _158  and  _160
REMARK   63  A    between atoms: _160  and  _161
REMARK   64  A    between atoms: _160  and  _163
REMARK   65  A    between atoms: _163  and  _164
REMARK   66  A    between atoms: _167  and  _169
REMARK   67  A    between atoms: _169  and  _170
REMARK   68  A    between atoms: _169  and  _172
REMARK   69  A    between atoms: _175  and  _177
REMARK   70  A    between atoms: _177  and  _178
REMARK   71  A    between atoms: _177  and  _180
REMARK   72  A    between atoms: _183  and  _185
REMARK   73  A    between atoms: _185  and  _186
REMARK   74  A    between atoms: _185  and  _188
REMARK   75  A    between atoms: _188  and  _189
REMARK   76  A    between atoms: _194  and  _195
REMARK   77  A    between atoms: _197  and  _199
REMARK   78  A    between atoms: _199  and  _200
REMARK   79  A    between atoms: _199  and  _202
REMARK   80  A    between atoms: _205  and  _207
REMARK   81  A    between atoms: _207  and  _208
REMARK   82  A    between atoms: _207  and  _210
REMARK   83  A    between atoms: _213  and  _214
REMARK   84  A    between atoms: _219  and  _221
REMARK   85  A    between atoms: _221  and  _222
REMARK   86  A    between atoms: _221  and  _224
REMARK   87  A    between atoms: _224  and  _225
REMARK   88  A    between atoms: _230  and  _231
REMARK   89  A    between atoms: _233  and  _235
REMARK   90  A    between atoms: _235  and  _236
REMARK   91  A    between atoms: _238  and  _240
REMARK   92  A    between atoms: _240  and  _241
REMARK   93  A    between atoms: _240  and  _243
REMARK   94  A    between atoms: _243  and  _244
REMARK   95  A    between atoms: _254  and  _256
REMARK   96  A    between atoms: _256  and  _257
REMARK   97  A    between atoms: _256  and  _259
REMARK   98  A    between atoms: _259  and  _260
REMARK   99  A    between atoms: _263  and  _265
REMARK  100  A    between atoms: _265  and  _266
REMARK  101  A    between atoms: _265  and  _268
REMARK  102  A    between atoms: _268  and  _269
REMARK  103  A    between atoms: _272  and  _274
REMARK  104  A    between atoms: _274  and  _275
REMARK  105  A    between atoms: _274  and  _277
REMARK  106  A    between atoms: _277  and  _278
REMARK  107  A    between atoms: _288  and  _290
REMARK  108  A    between atoms: _290  and  _291
REMARK  109  A    between atoms: _290  and  _293
REMARK  110  A    between atoms: _293  and  _294
REMARK  111  A    between atoms: _294  and  _295
REMARK  112  A    between atoms: _297  and  _299
REMARK  113  A    between atoms: _299  and  _300
REMARK  114  A    between atoms: _299  and  _302
REMARK  115  A    between atoms: _302  and  _303
REMARK  116  A    between atoms: _305  and  _307
REMARK  117  A    between atoms: _307  and  _308
REMARK  118  A    between atoms: _307  and  _310
REMARK  119  A    between atoms: _310  and  _311
REMARK  120  A    between atoms: _316  and  _317
REMARK  121  A    between atoms: _319  and  _321
REMARK  122  A    between atoms: _321  and  _322
REMARK  123  A    between atoms: _321  and  _324
REMARK  124  A    between atoms: _324  and  _325
REMARK  125  A    between atoms: _330  and  _331
REMARK  126  A    between atoms: _333  and  _335
REMARK  127  A    between atoms: _335  and  _336
REMARK  128  A    between atoms: _335  and  _338
REMARK  129  A    between atoms: _338  and  _339
REMARK  130  A    between atoms: _339  and  _340
REMARK  131  A    between atoms: _342  and  _344
REMARK  132  A    between atoms: _344  and  _345
REMARK  133  A    between atoms: _344  and  _347
REMARK  134  A    between atoms: _347  and  _348
REMARK  135  A    between atoms: _353  and  _354
REMARK  136  A    between atoms: _356  and  _358
REMARK  137  A    between atoms: _358  and  _359
REMARK  138  A    between atoms: _358  and  _361
REMARK  139  A    between atoms: _361  and  _362
REMARK  140  A    between atoms: _362  and  _363
REMARK  141  A    between atoms: _365  and  _367
REMARK  142  A    between atoms: _367  and  _368
REMARK  143  A    between atoms: _367  and  _370
REMARK  144  A    between atoms: _370  and  _371
REMARK  145  A    between atoms: _376  and  _378
REMARK  146  A    between atoms: _378  and  _379
REMARK  147  A    between atoms: _382  and  _384
REMARK  148  A    between atoms: _384  and  _385
REMARK  149  A    between atoms: _384  and  _387
REMARK  150  A    between atoms: _387  and  _388
REMARK  151  A    between atoms: _393  and  _395
REMARK  152  A    between atoms: _395  and  _396
REMARK  153  A    between atoms: _398  and  _400
REMARK  154  A    between atoms: _400  and  _401
REMARK  155  A    between atoms: _400  and  _403
REMARK  156  A    between atoms: _403  and  _404
REMARK  157  A    between atoms: _407  and  _409
REMARK  158  A    between atoms: _409  and  _410
REMARK  159  A    between atoms: _412  and  _414
REMARK  160  A    between atoms: _414  and  _415
REMARK  161  A    between atoms: _414  and  _417
REMARK  162  A    between atoms: _417  and  _418
REMARK  163  A    between atoms: _428  and  _430
REMARK  164  A    between atoms: _430  and  _431
REMARK  165  A    between atoms: _433  and  _435
REMARK  166  A    between atoms: _435  and  _436
REMARK  167  A    between atoms: _439  and  _441
REMARK  168  A    between atoms: _441  and  _442
REMARK  169  A    between atoms: _441  and  _444
REMARK  170  A    between atoms: _444  and  _445
REMARK  171  A    between atoms: _445  and  _446
REMARK  172  A    between atoms: _448  and  _450
REMARK  173  A    between atoms: _450  and  _451
REMARK  174  A    between atoms: _454  and  _456
REMARK  175  A    between atoms: _456  and  _457
REMARK  176  A    between atoms: _456  and  _459
REMARK  177  A    between atoms: _459  and  _460
REMARK  178  A    between atoms: _466  and  _468
REMARK  179  A    between atoms: _468  and  _469
REMARK  180  A    between atoms: _468  and  _471
REMARK  181  A    between atoms: _473  and  _475
REMARK  182  A    between atoms: _475  and  _476
REMARK  183  A    between atoms: _478  and  _480
REMARK  184  A    between atoms: _480  and  _481
REMARK  185  A    between atoms: _480  and  _483
REMARK  186  A    between atoms: _483  and  _484
REMARK  187  A    between atoms: _494  and  _496
REMARK  188  A    between atoms: _496  and  _497
REMARK  189  A    between atoms: _500  and  _502
REMARK  190  A    between atoms: _502  and  _503
REMARK  191  A    between atoms: _502  and  _505
REMARK  192  A    between atoms: _505  and  _506
REMARK  193  A    between atoms: _511  and  _513
REMARK  194  A    between atoms: _513  and  _514
REMARK  195  A    between atoms: _513  and  _516
REMARK  196  A    between atoms: _516  and  _517
REMARK                            x       y       z     vdW  Elec       q    Type
REMARK                         _______ _______ _______ _____ _____    ______ ____
ROOT
ATOM      1  CA  TRP A   5     -42.483 -59.519  10.096  0.00  0.00    +0.153 C 
ENDROOT
BRANCH   1   2
ATOM      2  C   TRP A   5     -42.277 -59.774   8.606  0.00  0.00    +0.241 C 
ATOM      3  O   TRP A   5     -41.597 -60.715   8.203  0.00  0.00    -0.273 OA
ATOM      4  N   THR A   6     -42.913 -58.934   7.808  0.00  0.00    -0.295 N 
ATOM      5  H   THR A   6     -43.273 -58.046   8.212  0.00  0.00    +0.150 HD
BRANCH   4   6
ATOM      6  CA  THR A   6     -43.136 -59.191   6.385  0.00  0.00    +0.176 C 
BRANCH   6   7
ATOM      7  C   THR A   6     -41.864 -59.465   5.597  0.00  0.00    +0.243 C 
ATOM      8  N   ASP A   7     -40.804 -58.721   5.917  0.00  0.00    -0.296 N 
ATOM      9  H   ASP A   7     -40.894 -58.011   6.672  0.00  0.00    +0.150 HD
ATOM     10  O   THR A   6     -41.846 -60.338   4.724  0.00  0.00    -0.273 OA
BRANCH   8  11
ATOM     11  CA  ASP A   7     -39.526 -58.876   5.239  0.00  0.00    +0.160 C 
BRANCH  11  12
ATOM     12  C   ASP A   7     -38.894 -60.242   5.534  0.00  0.00    +0.241 C 
ATOM     13  N   TRP A   8     -38.998 -60.713   6.771  0.00  0.00    -0.297 N 
ATOM     14  H   TRP A   8     -39.473 -60.151   7.506  0.00  0.00    +0.150 HD
ATOM     15  O   ASP A   7     -38.328 -60.875   4.645  0.00  0.00    -0.273 OA
BRANCH  13  16
ATOM     16  CA  TRP A   8     -38.444 -62.020   7.094  0.00  0.00    +0.153 C 
BRANCH  16  17
ATOM     17  C   TRP A   8     -39.306 -63.154   6.557  0.00  0.00    +0.241 C 
ATOM     18  N   MET A   9     -40.614 -62.941   6.480  0.00  0.00    -0.298 N 
ATOM     19  H   MET A   9     -41.023 -62.063   6.859  0.00  0.00    +0.150 HD
ATOM     20  O   TRP A   8     -38.791 -64.214   6.220  0.00  0.00    -0.273 OA
BRANCH  18  21
ATOM     21  CA  MET A   9     -41.476 -63.943   5.861  0.00  0.00    +0.138 C 
BRANCH  21  22
ATOM     22  C   MET A   9     -41.098 -64.143   4.378  0.00  0.00    +0.227 C 
ATOM     23  O   MET A   9     -41.024 -65.285   3.904  0.00  0.00    -0.286 OA
ENDBRANCH  21  22
BRANCH  21  24
ATOM     24  CB  MET A   9     -42.949 -63.553   5.996  0.00  0.00    +0.039 C 
BRANCH  24  25
ATOM     25  CG  MET A   9     -43.455 -63.558   7.444  0.00  0.00    +0.060 C 
BRANCH  25  26
ATOM     26  SD  MET A   9     -45.029 -62.687   7.596  0.00  0.00    -0.139 S 
ATOM     27  CE  MET A   9     -46.109 -63.782   6.668  0.00  0.00    +0.069 C 
ENDBRANCH  25  26
ENDBRANCH  24  25
ENDBRANCH  21  24
ENDBRANCH  18  21
ENDBRANCH  16  17
BRANCH  16  28
ATOM     28  CB  TRP A   8     -38.257 -62.192   8.604  0.00  0.00    +0.057 C 
BRANCH  28  29
ATOM     29  CG  TRP A   8     -37.069 -61.445   9.146  0.00  0.00    -0.002 A 
ATOM     30  CD2 TRP A   8     -36.440 -61.646  10.419  0.00  0.00    +0.013 A 
ATOM     31  CE3 TRP A   8     -36.675 -62.515  11.487  0.00  0.00    +0.001 A 
ATOM     32  CZ3 TRP A   8     -35.851 -62.438  12.612  0.00  0.00    +0.000 A 
ATOM     33  CH2 TRP A   8     -34.798 -61.522  12.672  0.00  0.00    +0.001 A 
ATOM     34  CZ2 TRP A   8     -34.536 -60.660  11.628  0.00  0.00    +0.017 A 
ATOM     35  CE2 TRP A   8     -35.365 -60.733  10.506  0.00  0.00    +0.056 A 
ATOM     36  NE1 TRP A   8     -35.340 -60.011   9.340  0.00  0.00    -0.352 N 
ATOM     37  HE1 TRP A   8     -34.658 -59.261   9.106  0.00  0.00    +0.166 HD
ATOM     38  CD1 TRP A   8     -36.371 -60.445   8.526  0.00  0.00    +0.068 A 
ENDBRANCH  28  29
ENDBRANCH  16  28
ENDBRANCH  13  16
ENDBRANCH  11  12
BRANCH  11  39
ATOM     39  CB  ASP A   7     -38.559 -57.740   5.621  0.00  0.00    +0.143 C 
BRANCH  39  40
ATOM     40  CG  ASP A   7     -38.367 -57.586   7.137  0.00  0.00    +0.367 C 
ATOM     41  OD2 ASP A   7     -39.333 -57.795   7.918  0.00  0.00    -0.246 OA
ATOM     42  OD1 ASP A   7     -37.235 -57.240   7.544  0.00  0.00    -0.246 OA
ENDBRANCH  39  40
ENDBRANCH  11  39
ENDBRANCH   8  11
ENDBRANCH   6   7
BRANCH   6  43
ATOM     43  CB  THR A   6     -43.857 -58.004   5.752  0.00  0.00    +0.137 C 
ATOM     44  CG2 THR A   6     -45.227 -57.866   6.366  0.00  0.00    +0.034 C 
BRANCH  43  45
ATOM     45  OG1 THR A   6     -43.090 -56.812   5.997  0.00  0.00    -0.382 OA
ATOM     46  HG1 THR A   6     -43.550 -56.036   5.590  0.00  0.00    +0.210 HD
ENDBRANCH  43  45
ENDBRANCH   6  43
ENDBRANCH   4   6
ENDBRANCH   1   2
BRANCH   1  48
ATOM     47  C   GLY A   4     -44.885 -59.369  10.330  0.00  0.00    +0.243 C 
ATOM     48  N   TRP A   5     -43.779 -60.104  10.446  0.00  0.00    -0.297 N 
ATOM     49  H   TRP A   5     -43.836 -61.086  10.783  0.00  0.00    +0.150 HD
ATOM     50  O   GLY A   4     -44.849 -58.170  10.049  0.00  0.00    -0.273 OA
BRANCH  47  51
ATOM     51  CA  GLY A   4     -46.218 -60.064  10.561  0.00  0.00    +0.176 C 
BRANCH  51  54
ATOM     52  C   TYR A   3     -45.890 -62.153  11.732  0.00  0.00    +0.241 C 
ATOM     53  O   TYR A   3     -45.678 -61.565  12.794  0.00  0.00    -0.273 OA
ATOM     54  N   GLY A   4     -46.120 -61.511  10.591  0.00  0.00    -0.295 N 
ATOM     55  H   GLY A   4     -46.231 -62.052   9.710  0.00  0.00    +0.150 HD
BRANCH  52  56
ATOM     56  CA  TYR A   3     -45.919 -63.683  11.689  0.00  0.00    +0.153 C 
BRANCH  56  58
ATOM     57  C   PRO A   2     -43.600 -63.828  12.395  0.00  0.00    +0.241 C 
ATOM     58  N   TYR A   3     -44.865 -64.218  12.536  0.00  0.00    -0.297 N 
ATOM     59  H   TYR A   3     -45.104 -64.919  13.266  0.00  0.00    +0.150 HD
ATOM     60  O   PRO A   2     -43.181 -63.202  11.413  0.00  0.00    -0.273 OA
BRANCH  57  66
ATOM     61  C   CYS A   1     -41.221 -65.760  12.396  0.00  0.00    +0.242 C 
ATOM     62  N   PRO A   2     -41.305 -64.590  13.056  0.00  0.00    -0.272 N 
ATOM     63  CD  PRO A   2     -40.246 -63.734  13.635  0.00  0.00    +0.094 C 
ATOM     64  CG  PRO A   2     -40.922 -63.119  14.835  0.00  0.00    +0.024 C 
ATOM     65  CB  PRO A   2     -42.382 -62.994  14.426  0.00  0.00    +0.031 C 
ATOM     66  CA  PRO A   2     -42.646 -64.210  13.524  0.00  0.00    +0.152 C 
ATOM     67  O   CYS A   1     -42.202 -66.474  12.180  0.00  0.00    -0.273 OA
BRANCH  61  68
ATOM     68  CA  CYS A   1     -39.852 -66.209  11.905  0.00  0.00    +0.157 C 
BRANCH  68  69
ATOM     69  CB  CYS A   1     -39.355 -65.311  10.766  0.00  0.00    +0.095 C 
ATOM     70  SG  CYS A   1     -40.643 -64.881   9.577  0.00  0.00    -0.080 S 
ENDBRANCH  68  69
BRANCH  68  71
ATOM     71  N   CYS A   1     -40.013 -67.591  11.472  0.00  0.00    -0.237 NA
ATOM     72  H   CYS A   1     -40.959 -67.896  11.166  0.00  0.00    +0.142 HD
ENDBRANCH  68  71
ENDBRANCH  61  68
ENDBRANCH  57  66
ENDBRANCH  56  58
BRANCH  56  73
ATOM     73  CB  TYR A   3     -47.304 -64.168  12.131  0.00  0.00    +0.055 C 
BRANCH  73  74
ATOM     74  CG  TYR A   3     -48.385 -63.462  11.344  0.00  0.00    -0.020 A 
ATOM     75  CD2 TYR A   3     -49.088 -62.390  11.882  0.00  0.00    -0.001 A 
ATOM     76  CE2 TYR A   3     -50.053 -61.725  11.136  0.00  0.00    +0.036 A 
ATOM     77  CZ  TYR A   3     -50.308 -62.123   9.843  0.00  0.00    +0.134 A 
ATOM     78  CE1 TYR A   3     -49.615 -63.174   9.289  0.00  0.00    +0.036 A 
ATOM     79  CD1 TYR A   3     -48.656 -63.831  10.036  0.00  0.00    -0.001 A 
BRANCH  77  80
ATOM     80  OH  TYR A   3     -51.260 -61.477   9.088  0.00  0.00    -0.506 OA
ATOM     81  HH  TYR A   3     -51.308 -61.894   8.192  0.00  0.00    +0.292 HD
ENDBRANCH  77  80
ENDBRANCH  73  74
ENDBRANCH  56  73
ENDBRANCH  52  56
ENDBRANCH  51  54
ENDBRANCH  47  51
ENDBRANCH   1  48
BRANCH   1  82
ATOM     82  CB  TRP A   5     -41.338 -60.107  10.939  0.00  0.00    +0.057 C 
BRANCH  82  83
ATOM     83  CG  TRP A   5     -41.377 -59.744  12.403  0.00  0.00    -0.002 A 
ATOM     84  CD2 TRP A   5     -40.311 -59.903  13.351  0.00  0.00    +0.013 A 
ATOM     85  CE2 TRP A   5     -40.783 -59.437  14.594  0.00  0.00    +0.056 A 
ATOM     86  CZ2 TRP A   5     -39.989 -59.442  15.738  0.00  0.00    +0.017 A 
ATOM     87  CH2 TRP A   5     -38.713 -59.923  15.618  0.00  0.00    +0.001 A 
ATOM     88  CZ3 TRP A   5     -38.218 -60.392  14.387  0.00  0.00    +0.000 A 
ATOM     89  NE1 TRP A   5     -42.080 -59.021  14.419  0.00  0.00    -0.352 N 
ATOM     90  HE1 TRP A   5     -42.697 -58.634  15.161  0.00  0.00    +0.166 HD
ATOM     91  CE3 TRP A   5     -38.997 -60.386  13.262  0.00  0.00    +0.001 A 
ATOM     92  CD1 TRP A   5     -42.429 -59.201  13.096  0.00  0.00    +0.068 A 
ENDBRANCH  82  83
ENDBRANCH   1  82
TORSDOF 32
REMARK  Name = ../refined-set-2016/4pfu/4pfu_pocket.pdb
REMARK  196 active torsions:
REMARK  status: ('A' for Active; 'I' for Inactive)
REMARK    1  A    between atoms: _1  and  _3
REMARK    2  A    between atoms: _3  and  _4
REMARK    3  A    between atoms: _3  and  _6
REMARK    4  A    between atoms: _6  and  _7
REMARK    5  A    between atoms: _12  and  _13
REMARK    6  A    between atoms: _15  and  _17
REMARK    7  A    between atoms: _17  and  _18
REMARK    8  A    between atoms: _20  and  _22
REMARK    9  A    between atoms: _22  and  _23
REMARK   10  A    between atoms: _25  and  _27
REMARK   11  A    between atoms: _27  and  _28
REMARK   12  A    between atoms: _27  and  _30
REMARK   13  A    between atoms: _30  and  _31
REMARK   14  A    between atoms: _33  and  _35
REMARK   15  A    between atoms: _35  and  _36
REMARK   16  A    between atoms: _35  and  _38
REMARK   17  A    between atoms: _38  and  _39
REMARK   18  A    between atoms: _42  and  _44
REMARK   19  A    between atoms: _44  and  _45
REMARK   20  A    between atoms: _44  and  _47
REMARK   21  A    between atoms: _47  and  _48
REMARK   22  A    between atoms: _59  and  _60
REMARK   23  A    between atoms: _65  and  _67
REMARK   24  A    between atoms: _67  and  _68
REMARK   25  A    between atoms: _67  and  _70
REMARK   26  A    between atoms: _70  and  _71
REMARK   27  A    between atoms: _73  and  _75
REMARK   28  A    between atoms: _75  and  _76
REMARK   29  A    between atoms: _75  and  _78
REMARK   30  A    between atoms: _78  and  _79
REMARK   31  A    between atoms: _84  and  _86
REMARK   32  A    between atoms: _86  and  _87
REMARK   33  A    between atoms: _86  and  _89
REMARK   34  A    between atoms: _89  and  _90
REMARK   35  A    between atoms: _95  and  _97
REMARK   36  A    between atoms: _97  and  _98
REMARK   37  A    between atoms: _101  and  _103
REMARK   38  A    between atoms: _103  and  _104
REMARK   39  A    between atoms: _103  and  _106
REMARK   40  A    between atoms: _106  and  _107
REMARK   41  A    between atoms: _109  and  _111
REMARK   42  A    between atoms: _111  and  _112
REMARK   43  A    between atoms: _111  and  _114
REMARK   44  A    between atoms: _114  and  _115
REMARK   45  A    between atoms: _120  and  _122
REMARK   46  A    between atoms: _122  and  _123
REMARK   47  A    between atoms: _122  and  _125
REMARK   48  A    between atoms: _125  and  _126
REMARK   49  A    between atoms: _132  and  _134
REMARK   50  A    between atoms: _134  and  _135
REMARK   51  A    between atoms: _134  and  _137
REMARK   52  A    between atoms: _137  and  _138
REMARK   53  A    between atoms: _138  and  _139
REMARK   54  A    between atoms: _141  and  _143
REMARK   55  A    between atoms: _143  and  _144
REMARK   56  A    between atoms: _143  and  _146
REMARK   57  A    between atoms: _146  and  _147
REMARK   58  A    between atoms: _150  and  _152
REMARK   59  A    between atoms: _152  and  _153
REMARK   60  A    between atoms: _152  and  _155
REMARK   61  A    between atoms: _155  and  _156
REMARK   62  A    between atoms: _158  and  _160
REMARK   63  A    between atoms: _160  and  _161
REMARK   64  A    between atoms: _160  and  _163
REMARK   65  A    between atoms: _163  and  _164
REMARK   66  A    between atoms: _167  and  _169
REMARK   67  A    between atoms: _169  and  _170
REMARK   68  A    between atoms: _169  and  _172
REMARK   69  A    between atoms: _175  and  _177
REMARK   70  A    between atoms: _177  and  _178
REMARK   71  A    between atoms: _177  and  _180
REMARK   72  A    between atoms: _183  and  _185
REMARK   73  A    between atoms: _185  and  _186
REMARK   74  A    between atoms: _185  and  _188
REMARK   75  A    between atoms: _188  and  _189
REMARK   76  A    between atoms: _194  and  _195
REMARK   77  A    between atoms: _197  and  _199
REMARK   78  A    between atoms: _199  and  _200
REMARK   79  A    between atoms: _199  and  _202
REMARK   80  A    between atoms: _205  and  _207
REMARK   81  A    between atoms: _207  and  _208
REMARK   82  A    between atoms: _207  and  _210
REMARK   83  A    between atoms: _213  and  _214
REMARK   84  A    between atoms: _219  and  _221
REMARK   85  A    between atoms: _221  and  _222
REMARK   86  A    between atoms: _221  and  _224
REMARK   87  A    between atoms: _224  and  _225
REMARK   88  A    between atoms: _230  and  _231
REMARK   89  A    between atoms: _233  and  _235
REMARK   90  A    between atoms: _235  and  _236
REMARK   91  A    between atoms: _238  and  _240
REMARK   92  A    between atoms: _240  and  _241
REMARK   93  A    between atoms: _240  and  _243
REMARK   94  A    between atoms: _243  and  _244
REMARK   95  A    between atoms: _254  and  _256
REMARK   96  A    between atoms: _256  and  _257
REMARK   97  A    between atoms: _256  and  _259
REMARK   98  A    between atoms: _259  and  _260
REMARK   99  A    between atoms: _263  and  _265
REMARK  100  A    between atoms: _265  and  _266
REMARK  101  A    between atoms: _265  and  _268
REMARK  102  A    between atoms: _268  and  _269
REMARK  103  A    between atoms: _272  and  _274
REMARK  104  A    between atoms: _274  and  _275
REMARK  105  A    between atoms: _274  and  _277
REMARK  106  A    between atoms: _277  and  _278
REMARK  107  A    between atoms: _288  and  _290
REMARK  108  A    between atoms: _290  and  _291
REMARK  109  A    between atoms: _290  and  _293
REMARK  110  A    between atoms: _293  and  _294
REMARK  111  A    between atoms: _294  and  _295
REMARK  112  A    between atoms: _297  and  _299
REMARK  113  A    between atoms: _299  and  _300
REMARK  114  A    between atoms: _299  and  _302
REMARK  115  A    between atoms: _302  and  _303
REMARK  116  A    between atoms: _305  and  _307
REMARK  117  A    between atoms: _307  and  _308
REMARK  118  A    between atoms: _307  and  _310
REMARK  119  A    between atoms: _310  and  _311
REMARK  120  A    between atoms: _316  and  _317
REMARK  121  A    between atoms: _319  and  _321
REMARK  122  A    between atoms: _321  and  _322
REMARK  123  A    between atoms: _321  and  _324
REMARK  124  A    between atoms: _324  and  _325
REMARK  125  A    between atoms: _330  and  _331
REMARK  126  A    between atoms: _333  and  _335
REMARK  127  A    between atoms: _335  and  _336
REMARK  128  A    between atoms: _335  and  _338
REMARK  129  A    between atoms: _338  and  _339
REMARK  130  A    between atoms: _339  and  _340
REMARK  131  A    between atoms: _342  and  _344
REMARK  132  A    between atoms: _344  and  _345
REMARK  133  A    between atoms: _344  and  _347
REMARK  134  A    between atoms: _347  and  _348
REMARK  135  A    between atoms: _353  and  _354
REMARK  136  A    between atoms: _356  and  _358
REMARK  137  A    between atoms: _358  and  _359
REMARK  138  A    between atoms: _358  and  _361
REMARK  139  A    between atoms: _361  and  _362
REMARK  140  A    between atoms: _362  and  _363
REMARK  141  A    between atoms: _365  and  _367
REMARK  142  A    between atoms: _367  and  _368
REMARK  143  A    between atoms: _367  and  _370
REMARK  144  A    between atoms: _370  and  _371
REMARK  145  A    between atoms: _376  and  _378
REMARK  146  A    between atoms: _378  and  _379
REMARK  147  A    between atoms: _382  and  _384
REMARK  148  A    between atoms: _384  and  _385
REMARK  149  A    between atoms: _384  and  _387
REMARK  150  A    between atoms: _387  and  _388
REMARK  151  A    between atoms: _393  and  _395
REMARK  152  A    between atoms: _395  and  _396
REMARK  153  A    between atoms: _398  and  _400
REMARK  154  A    between atoms: _400  and  _401
REMARK  155  A    between atoms: _400  and  _403
REMARK  156  A    between atoms: _403  and  _404
REMARK  157  A    between atoms: _407  and  _409
REMARK  158  A    between atoms: _409  and  _410
REMARK  159  A    between atoms: _412  and  _414
REMARK  160  A    between atoms: _414  and  _415
REMARK  161  A    between atoms: _414  and  _417
REMARK  162  A    between atoms: _417  and  _418
REMARK  163  A    between atoms: _428  and  _430
REMARK  164  A    between atoms: _430  and  _431
REMARK  165  A    between atoms: _433  and  _435
REMARK  166  A    between atoms: _435  and  _436
REMARK  167  A    between atoms: _439  and  _441
REMARK  168  A    between atoms: _441  and  _442
REMARK  169  A    between atoms: _441  and  _444
REMARK  170  A    between atoms: _444  and  _445
REMARK  171  A    between atoms: _445  and  _446
REMARK  172  A    between atoms: _448  and  _450
REMARK  173  A    between atoms: _450  and  _451
REMARK  174  A    between atoms: _454  and  _456
REMARK  175  A    between atoms: _456  and  _457
REMARK  176  A    between atoms: _456  and  _459
REMARK  177  A    between atoms: _459  and  _460
REMARK  178  A    between atoms: _466  and  _468
REMARK  179  A    between atoms: _468  and  _469
REMARK  180  A    between atoms: _468  and  _471
REMARK  181  A    between atoms: _473  and  _475
REMARK  182  A    between atoms: _475  and  _476
REMARK  183  A    between atoms: _478  and  _480
REMARK  184  A    between atoms: _480  and  _481
REMARK  185  A    between atoms: _480  and  _483
REMARK  186  A    between atoms: _483  and  _484
REMARK  187  A    between atoms: _494  and  _496
REMARK  188  A    between atoms: _496  and  _497
REMARK  189  A    between atoms: _500  and  _502
REMARK  190  A    between atoms: _502  and  _503
REMARK  191  A    between atoms: _502  and  _505
REMARK  192  A    between atoms: _505  and  _506
REMARK  193  A    between atoms: _511  and  _513
REMARK  194  A    between atoms: _513  and  _514
REMARK  195  A    between atoms: _513  and  _516
REMARK  196  A    between atoms: _516  and  _517
REMARK                            x       y       z     vdW  Elec       q    Type
REMARK                         _______ _______ _______ _____ _____    ______ ____
ROOT
ATOM      1  CA  SER A   1     -44.160 -63.530  17.951  0.00  0.00    +0.163 C 
ENDROOT
BRANCH   1   2
ATOM      2  N   SER A   1     -45.412 -63.944  17.361  0.00  0.00    -0.237 NA
ATOM      3  H   SER A   1     -46.071 -63.214  17.023  0.00  0.00    +0.142 HD
ENDBRANCH   1   2
BRANCH   1   4
ATOM      4  C   SER A   1     -43.934 -64.201  19.318  0.00  0.00    +0.227 C 
ATOM      5  O   SER A   1     -42.842 -64.706  19.587  0.00  0.00    -0.287 OA
ENDBRANCH   1   4
BRANCH   1   6
ATOM      6  CB  SER A   1     -44.141 -62.011  18.081  0.00  0.00    +0.162 C 
BRANCH   6   7
ATOM      7  OG  SER A   1     -42.931 -61.573  18.657  0.00  0.00    -0.380 OA
ATOM      8  H   SER A   1     -42.832 -61.972  19.558  0.00  0.00    +0.211 HD
ENDBRANCH   6   7
ENDBRANCH   1   6
TORSDOF 4
REMARK  Name = ../refined-set-2016/4pfu/4pfu_pocket.pdb
REMARK  196 active torsions:
REMARK  status: ('A' for Active; 'I' for Inactive)
REMARK    1  A    between atoms: _1  and  _3
REMARK    2  A    between atoms: _3  and  _4
REMARK    3  A    between atoms: _3  and  _6
REMARK    4  A    between atoms: _6  and  _7
REMARK    5  A    between atoms: _12  and  _13
REMARK    6  A    between atoms: _15  and  _17
REMARK    7  A    between atoms: _17  and  _18
REMARK    8  A    between atoms: _20  and  _22
REMARK    9  A    between atoms: _22  and  _23
REMARK   10  A    between atoms: _25  and  _27
REMARK   11  A    between atoms: _27  and  _28
REMARK   12  A    between atoms: _27  and  _30
REMARK   13  A    between atoms: _30  and  _31
REMARK   14  A    between atoms: _33  and  _35
REMARK   15  A    between atoms: _35  and  _36
REMARK   16  A    between atoms: _35  and  _38
REMARK   17  A    between atoms: _38  and  _39
REMARK   18  A    between atoms: _42  and  _44
REMARK   19  A    between atoms: _44  and  _45
REMARK   20  A    between atoms: _44  and  _47
REMARK   21  A    between atoms: _47  and  _48
REMARK   22  A    between atoms: _59  and  _60
REMARK   23  A    between atoms: _65  and  _67
REMARK   24  A    between atoms: _67  and  _68
REMARK   25  A    between atoms: _67  and  _70
REMARK   26  A    between atoms: _70  and  _71
REMARK   27  A    between atoms: _73  and  _75
REMARK   28  A    between atoms: _75  and  _76
REMARK   29  A    between atoms: _75  and  _78
REMARK   30  A    between atoms: _78  and  _79
REMARK   31  A    between atoms: _84  and  _86
REMARK   32  A    between atoms: _86  and  _87
REMARK   33  A    between atoms: _86  and  _89
REMARK   34  A    between atoms: _89  and  _90
REMARK   35  A    between atoms: _95  and  _97
REMARK   36  A    between atoms: _97  and  _98
REMARK   37  A    between atoms: _101  and  _103
REMARK   38  A    between atoms: _103  and  _104
REMARK   39  A    between atoms: _103  and  _106
REMARK   40  A    between atoms: _106  and  _107
REMARK   41  A    between atoms: _109  and  _111
REMARK   42  A    between atoms: _111  and  _112
REMARK   43  A    between atoms: _111  and  _114
REMARK   44  A    between atoms: _114  and  _115
REMARK   45  A    between atoms: _120  and  _122
REMARK   46  A    between atoms: _122  and  _123
REMARK   47  A    between atoms: _122  and  _125
REMARK   48  A    between atoms: _125  and  _126
REMARK   49  A    between atoms: _132  and  _134
REMARK   50  A    between atoms: _134  and  _135
REMARK   51  A    between atoms: _134  and  _137
REMARK   52  A    between atoms: _137  and  _138
REMARK   53  A    between atoms: _138  and  _139
REMARK   54  A    between atoms: _141  and  _143
REMARK   55  A    between atoms: _143  and  _144
REMARK   56  A    between atoms: _143  and  _146
REMARK   57  A    between atoms: _146  and  _147
REMARK   58  A    between atoms: _150  and  _152
REMARK   59  A    between atoms: _152  and  _153
REMARK   60  A    between atoms: _152  and  _155
REMARK   61  A    between atoms: _155  and  _156
REMARK   62  A    between atoms: _158  and  _160
REMARK   63  A    between atoms: _160  and  _161
REMARK   64  A    between atoms: _160  and  _163
REMARK   65  A    between atoms: _163  and  _164
REMARK   66  A    between atoms: _167  and  _169
REMARK   67  A    between atoms: _169  and  _170
REMARK   68  A    between atoms: _169  and  _172
REMARK   69  A    between atoms: _175  and  _177
REMARK   70  A    between atoms: _177  and  _178
REMARK   71  A    between atoms: _177  and  _180
REMARK   72  A    between atoms: _183  and  _185
REMARK   73  A    between atoms: _185  and  _186
REMARK   74  A    between atoms: _185  and  _188
REMARK   75  A    between atoms: _188  and  _189
REMARK   76  A    between atoms: _194  and  _195
REMARK   77  A    between atoms: _197  and  _199
REMARK   78  A    between atoms: _199  and  _200
REMARK   79  A    between atoms: _199  and  _202
REMARK   80  A    between atoms: _205  and  _207
REMARK   81  A    between atoms: _207  and  _208
REMARK   82  A    between atoms: _207  and  _210
REMARK   83  A    between atoms: _213  and  _214
REMARK   84  A    between atoms: _219  and  _221
REMARK   85  A    between atoms: _221  and  _222
REMARK   86  A    between atoms: _221  and  _224
REMARK   87  A    between atoms: _224  and  _225
REMARK   88  A    between atoms: _230  and  _231
REMARK   89  A    between atoms: _233  and  _235
REMARK   90  A    between atoms: _235  and  _236
REMARK   91  A    between atoms: _238  and  _240
REMARK   92  A    between atoms: _240  and  _241
REMARK   93  A    between atoms: _240  and  _243
REMARK   94  A    between atoms: _243  and  _244
REMARK   95  A    between atoms: _254  and  _256
REMARK   96  A    between atoms: _256  and  _257
REMARK   97  A    between atoms: _256  and  _259
REMARK   98  A    between atoms: _259  and  _260
REMARK   99  A    between atoms: _263  and  _265
REMARK  100  A    between atoms: _265  and  _266
REMARK  101  A    between atoms: _265  and  _268
REMARK  102  A    between atoms: _268  and  _269
REMARK  103  A    between atoms: _272  and  _274
REMARK  104  A    between atoms: _274  and  _275
REMARK  105  A    between atoms: _274  and  _277
REMARK  106  A    between atoms: _277  and  _278
REMARK  107  A    between atoms: _288  and  _290
REMARK  108  A    between atoms: _290  and  _291
REMARK  109  A    between atoms: _290  and  _293
REMARK  110  A    between atoms: _293  and  _294
REMARK  111  A    between atoms: _294  and  _295
REMARK  112  A    between atoms: _297  and  _299
REMARK  113  A    between atoms: _299  and  _300
REMARK  114  A    between atoms: _299  and  _302
REMARK  115  A    between atoms: _302  and  _303
REMARK  116  A    between atoms: _305  and  _307
REMARK  117  A    between atoms: _307  and  _308
REMARK  118  A    between atoms: _307  and  _310
REMARK  119  A    between atoms: _310  and  _311
REMARK  120  A    between atoms: _316  and  _317
REMARK  121  A    between atoms: _319  and  _321
REMARK  122  A    between atoms: _321  and  _322
REMARK  123  A    between atoms: _321  and  _324
REMARK  124  A    between atoms: _324  and  _325
REMARK  125  A    between atoms: _330  and  _331
REMARK  126  A    between atoms: _333  and  _335
REMARK  127  A    between atoms: _335  and  _336
REMARK  128  A    between atoms: _335  and  _338
REMARK  129  A    between atoms: _338  and  _339
REMARK  130  A    between atoms: _339  and  _340
REMARK  131  A    between atoms: _342  and  _344
REMARK  132  A    between atoms: _344  and  _345
REMARK  133  A    between atoms: _344  and  _347
REMARK  134  A    between atoms: _347  and  _348
REMARK  135  A    between atoms: _353  and  _354
REMARK  136  A    between atoms: _356  and  _358
REMARK  137  A    between atoms: _358  and  _359
REMARK  138  A    between atoms: _358  and  _361
REMARK  139  A    between atoms: _361  and  _362
REMARK  140  A    between atoms: _362  and  _363
REMARK  141  A    between atoms: _365  and  _367
REMARK  142  A    between atoms: _367  and  _368
REMARK  143  A    between atoms: _367  and  _370
REMARK  144  A    between atoms: _370  and  _371
REMARK  145  A    between atoms: _376  and  _378
REMARK  146  A    between atoms: _378  and  _379
REMARK  147  A    between atoms: _382  and  _384
REMARK  148  A    between atoms: _384  and  _385
REMARK  149  A    between atoms: _384  and  _387
REMARK  150  A    between atoms: _387  and  _388
REMARK  151  A    between atoms: _393  and  _395
REMARK  152  A    between atoms: _395  and  _396
REMARK  153  A    between atoms: _398  and  _400
REMARK  154  A    between atoms: _400  and  _401
REMARK  155  A    between atoms: _400  and  _403
REMARK  156  A    between atoms: _403  and  _404
REMARK  157  A    between atoms: _407  and  _409
REMARK  158  A    between atoms: _409  and  _410
REMARK  159  A    between atoms: _412  and  _414
REMARK  160  A    between atoms: _414  and  _415
REMARK  161  A    between atoms: _414  and  _417
REMARK  162  A    between atoms: _417  and  _418
REMARK  163  A    between atoms: _428  and  _430
REMARK  164  A    between atoms: _430  and  _431
REMARK  165  A    between atoms: _433  and  _435
REMARK  166  A    between atoms: _435  and  _436
REMARK  167  A    between atoms: _439  and  _441
REMARK  168  A    between atoms: _441  and  _442
REMARK  169  A    between atoms: _441  and  _444
REMARK  170  A    between atoms: _444  and  _445
REMARK  171  A    between atoms: _445  and  _446
REMARK  172  A    between atoms: _448  and  _450
REMARK  173  A    between atoms: _450  and  _451
REMARK  174  A    between atoms: _454  and  _456
REMARK  175  A    between atoms: _456  and  _457
REMARK  176  A    between atoms: _456  and  _459
REMARK  177  A    between atoms: _459  and  _460
REMARK  178  A    between atoms: _466  and  _468
REMARK  179  A    between atoms: _468  and  _469
REMARK  180  A    between atoms: _468  and  _471
REMARK  181  A    between atoms: _473  and  _475
REMARK  182  A    between atoms: _475  and  _476
REMARK  183  A    between atoms: _478  and  _480
REMARK  184  A    between atoms: _480  and  _481
REMARK  185  A    between atoms: _480  and  _483
REMARK  186  A    between atoms: _483  and  _484
REMARK  187  A    between atoms: _494  and  _496
REMARK  188  A    between atoms: _496  and  _497
REMARK  189  A    between atoms: _500  and  _502
REMARK  190  A    between atoms: _502  and  _503
REMARK  191  A    between atoms: _502  and  _505
REMARK  192  A    between atoms: _505  and  _506
REMARK  193  A    between atoms: _511  and  _513
REMARK  194  A    between atoms: _513  and  _514
REMARK  195  A    between atoms: _513  and  _516
REMARK  196  A    between atoms: _516  and  _517
REMARK                            x       y       z     vdW  Elec       q    Type
REMARK                         _______ _______ _______ _____ _____    ______ ____
ROOT
ATOM      1  C   TYR A   1     -40.424 -67.501  19.085  0.00  0.00    +0.239 C 
ATOM      2  N   TYR A   2     -40.602 -66.597  20.038  0.00  0.00    -0.298 N 
ATOM      3  H   TYR A   2     -41.455 -66.002  20.020  0.00  0.00    +0.150 HD
ATOM      4  O   TYR A   1     -39.426 -68.222  19.019  0.00  0.00    -0.274 OA
ENDROOT
BRANCH   1   5
ATOM      5  CA  TYR A   1     -41.534 -67.605  18.034  0.00  0.00    +0.149 C 
BRANCH   5   6
ATOM      6  N   TYR A   1     -42.872 -67.668  18.642  0.00  0.00    -0.238 NA
ATOM      7  H   TYR A   1     -43.601 -66.997  18.327  0.00  0.00    +0.142 HD
ENDBRANCH   5   6
BRANCH   5   8
ATOM      8  CB  TYR A   1     -41.444 -66.412  17.080  0.00  0.00    +0.053 C 
BRANCH   8   9
ATOM      9  CG  TYR A   1     -40.033 -65.995  16.665  0.00  0.00    -0.020 A 
ATOM     10  CD2 TYR A   1     -39.386 -64.922  17.290  0.00  0.00    -0.001 A 
ATOM     11  CE2 TYR A   1     -38.104 -64.513  16.896  0.00  0.00    +0.036 A 
ATOM     12  CZ  TYR A   1     -37.447 -65.198  15.878  0.00  0.00    +0.134 A 
ATOM     13  CE1 TYR A   1     -38.072 -66.263  15.242  0.00  0.00    +0.036 A 
ATOM     14  CD1 TYR A   1     -39.361 -66.653  15.633  0.00  0.00    -0.001 A 
BRANCH  12  15
ATOM     15  OH  TYR A   1     -36.174 -64.810  15.484  0.00  0.00    -0.506 OA
ATOM     16  HH  TYR A   1     -35.861 -65.402  14.755  0.00  0.00    +0.292 HD
ENDBRANCH  12  15
ENDBRANCH   8   9
ENDBRANCH   5   8
ENDBRANCH   1   5
BRANCH   2  17
ATOM     17  CA  TYR A   2     -39.626 -66.416  21.117  0.00  0.00    +0.141 C 
BRANCH  17  18
ATOM     18  C   TYR A   2     -39.610 -67.585  22.118  0.00  0.00    +0.227 C 
ATOM     19  O   TYR A   2     -38.553 -67.969  22.631  0.00  0.00    -0.286 OA
ENDBRANCH  17  18
BRANCH  17  20
ATOM     20  CB  TYR A   2     -39.886 -65.090  21.858  0.00  0.00    +0.054 C 
BRANCH  20  21
ATOM     21  CG  TYR A   2     -39.401 -63.878  21.090  0.00  0.00    -0.020 A 
ATOM     22  CD2 TYR A   2     -38.041 -63.613  20.967  0.00  0.00    -0.001 A 
ATOM     23  CE2 TYR A   2     -37.583 -62.502  20.263  0.00  0.00    +0.036 A 
ATOM     24  CZ  TYR A   2     -38.488 -61.649  19.663  0.00  0.00    +0.134 A 
ATOM     25  CE1 TYR A   2     -39.851 -61.891  19.768  0.00  0.00    +0.036 A 
ATOM     26  CD1 TYR A   2     -40.299 -63.004  20.479  0.00  0.00    -0.001 A 
BRANCH  24  27
ATOM     27  OH  TYR A   2     -38.024 -60.552  18.971  0.00  0.00    -0.506 OA
ATOM     28  HH  TYR A   2     -37.035 -60.539  19.000  0.00  0.00    +0.292 HD
ENDBRANCH  24  27
ENDBRANCH  20  21
ENDBRANCH  17  20
ENDBRANCH   2  17
TORSDOF 10
REMARK  Name = ../refined-set-2016/4pfu/4pfu_pocket.pdb
REMARK  196 active torsions:
REMARK  status: ('A' for Active; 'I' for Inactive)
REMARK    1  A    between atoms: _1  and  _3
REMARK    2  A    between atoms: _3  and  _4
REMARK    3  A    between atoms: _3  and  _6
REMARK    4  A    between atoms: _6  and  _7
REMARK    5  A    between atoms: _12  and  _13
REMARK    6  A    between atoms: _15  and  _17
REMARK    7  A    between atoms: _17  and  _18
REMARK    8  A    between atoms: _20  and  _22
REMARK    9  A    between atoms: _22  and  _23
REMARK   10  A    between atoms: _25  and  _27
REMARK   11  A    between atoms: _27  and  _28
REMARK   12  A    between atoms: _27  and  _30
REMARK   13  A    between atoms: _30  and  _31
REMARK   14  A    between atoms: _33  and  _35
REMARK   15  A    between atoms: _35  and  _36
REMARK   16  A    between atoms: _35  and  _38
REMARK   17  A    between atoms: _38  and  _39
REMARK   18  A    between atoms: _42  and  _44
REMARK   19  A    between atoms: _44  and  _45
REMARK   20  A    between atoms: _44  and  _47
REMARK   21  A    between atoms: _47  and  _48
REMARK   22  A    between atoms: _59  and  _60
REMARK   23  A    between atoms: _65  and  _67
REMARK   24  A    between atoms: _67  and  _68
REMARK   25  A    between atoms: _67  and  _70
REMARK   26  A    between atoms: _70  and  _71
REMARK   27  A    between atoms: _73  and  _75
REMARK   28  A    between atoms: _75  and  _76
REMARK   29  A    between atoms: _75  and  _78
REMARK   30  A    between atoms: _78  and  _79
REMARK   31  A    between atoms: _84  and  _86
REMARK   32  A    between atoms: _86  and  _87
REMARK   33  A    between atoms: _86  and  _89
REMARK   34  A    between atoms: _89  and  _90
REMARK   35  A    between atoms: _95  and  _97
REMARK   36  A    between atoms: _97  and  _98
REMARK   37  A    between atoms: _101  and  _103
REMARK   38  A    between atoms: _103  and  _104
REMARK   39  A    between atoms: _103  and  _106
REMARK   40  A    between atoms: _106  and  _107
REMARK   41  A    between atoms: _109  and  _111
REMARK   42  A    between atoms: _111  and  _112
REMARK   43  A    between atoms: _111  and  _114
REMARK   44  A    between atoms: _114  and  _115
REMARK   45  A    between atoms: _120  and  _122
REMARK   46  A    between atoms: _122  and  _123
REMARK   47  A    between atoms: _122  and  _125
REMARK   48  A    between atoms: _125  and  _126
REMARK   49  A    between atoms: _132  and  _134
REMARK   50  A    between atoms: _134  and  _135
REMARK   51  A    between atoms: _134  and  _137
REMARK   52  A    between atoms: _137  and  _138
REMARK   53  A    between atoms: _138  and  _139
REMARK   54  A    between atoms: _141  and  _143
REMARK   55  A    between atoms: _143  and  _144
REMARK   56  A    between atoms: _143  and  _146
REMARK   57  A    between atoms: _146  and  _147
REMARK   58  A    between atoms: _150  and  _152
REMARK   59  A    between atoms: _152  and  _153
REMARK   60  A    between atoms: _152  and  _155
REMARK   61  A    between atoms: _155  and  _156
REMARK   62  A    between atoms: _158  and  _160
REMARK   63  A    between atoms: _160  and  _161
REMARK   64  A    between atoms: _160  and  _163
REMARK   65  A    between atoms: _163  and  _164
REMARK   66  A    between atoms: _167  and  _169
REMARK   67  A    between atoms: _169  and  _170
REMARK   68  A    between atoms: _169  and  _172
REMARK   69  A    between atoms: _175  and  _177
REMARK   70  A    between atoms: _177  and  _178
REMARK   71  A    between atoms: _177  and  _180
REMARK   72  A    between atoms: _183  and  _185
REMARK   73  A    between atoms: _185  and  _186
REMARK   74  A    between atoms: _185  and  _188
REMARK   75  A    between atoms: _188  and  _189
REMARK   76  A    between atoms: _194  and  _195
REMARK   77  A    between atoms: _197  and  _199
REMARK   78  A    between atoms: _199  and  _200
REMARK   79  A    between atoms: _199  and  _202
REMARK   80  A    between atoms: _205  and  _207
REMARK   81  A    between atoms: _207  and  _208
REMARK   82  A    between atoms: _207  and  _210
REMARK   83  A    between atoms: _213  and  _214
REMARK   84  A    between atoms: _219  and  _221
REMARK   85  A    between atoms: _221  and  _222
REMARK   86  A    between atoms: _221  and  _224
REMARK   87  A    between atoms: _224  and  _225
REMARK   88  A    between atoms: _230  and  _231
REMARK   89  A    between atoms: _233  and  _235
REMARK   90  A    between atoms: _235  and  _236
REMARK   91  A    between atoms: _238  and  _240
REMARK   92  A    between atoms: _240  and  _241
REMARK   93  A    between atoms: _240  and  _243
REMARK   94  A    between atoms: _243  and  _244
REMARK   95  A    between atoms: _254  and  _256
REMARK   96  A    between atoms: _256  and  _257
REMARK   97  A    between atoms: _256  and  _259
REMARK   98  A    between atoms: _259  and  _260
REMARK   99  A    between atoms: _263  and  _265
REMARK  100  A    between atoms: _265  and  _266
REMARK  101  A    between atoms: _265  and  _268
REMARK  102  A    between atoms: _268  and  _269
REMARK  103  A    between atoms: _272  and  _274
REMARK  104  A    between atoms: _274  and  _275
REMARK  105  A    between atoms: _274  and  _277
REMARK  106  A    between atoms: _277  and  _278
REMARK  107  A    between atoms: _288  and  _290
REMARK  108  A    between atoms: _290  and  _291
REMARK  109  A    between atoms: _290  and  _293
REMARK  110  A    between atoms: _293  and  _294
REMARK  111  A    between atoms: _294  and  _295
REMARK  112  A    between atoms: _297  and  _299
REMARK  113  A    between atoms: _299  and  _300
REMARK  114  A    between atoms: _299  and  _302
REMARK  115  A    between atoms: _302  and  _303
REMARK  116  A    between atoms: _305  and  _307
REMARK  117  A    between atoms: _307  and  _308
REMARK  118  A    between atoms: _307  and  _310
REMARK  119  A    between atoms: _310  and  _311
REMARK  120  A    between atoms: _316  and  _317
REMARK  121  A    between atoms: _319  and  _321
REMARK  122  A    between atoms: _321  and  _322
REMARK  123  A    between atoms: _321  and  _324
REMARK  124  A    between atoms: _324  and  _325
REMARK  125  A    between atoms: _330  and  _331
REMARK  126  A    between atoms: _333  and  _335
REMARK  127  A    between atoms: _335  and  _336
REMARK  128  A    between atoms: _335  and  _338
REMARK  129  A    between atoms: _338  and  _339
REMARK  130  A    between atoms: _339  and  _340
REMARK  131  A    between atoms: _342  and  _344
REMARK  132  A    between atoms: _344  and  _345
REMARK  133  A    between atoms: _344  and  _347
REMARK  134  A    between atoms: _347  and  _348
REMARK  135  A    between atoms: _353  and  _354
REMARK  136  A    between atoms: _356  and  _358
REMARK  137  A    between atoms: _358  and  _359
REMARK  138  A    between atoms: _358  and  _361
REMARK  139  A    between atoms: _361  and  _362
REMARK  140  A    between atoms: _362  and  _363
REMARK  141  A    between atoms: _365  and  _367
REMARK  142  A    between atoms: _367  and  _368
REMARK  143  A    between atoms: _367  and  _370
REMARK  144  A    between atoms: _370  and  _371
REMARK  145  A    between atoms: _376  and  _378
REMARK  146  A    between atoms: _378  and  _379
REMARK  147  A    between atoms: _382  and  _384
REMARK  148  A    between atoms: _384  and  _385
REMARK  149  A    between atoms: _384  and  _387
REMARK  150  A    between atoms: _387  and  _388
REMARK  151  A    between atoms: _393  and  _395
REMARK  152  A    between atoms: _395  and  _396
REMARK  153  A    between atoms: _398  and  _400
REMARK  154  A    between atoms: _400  and  _401
REMARK  155  A    between atoms: _400  and  _403
REMARK  156  A    between atoms: _403  and  _404
REMARK  157  A    between atoms: _407  and  _409
REMARK  158  A    between atoms: _409  and  _410
REMARK  159  A    between atoms: _412  and  _414
REMARK  160  A    between atoms: _414  and  _415
REMARK  161  A    between atoms: _414  and  _417
REMARK  162  A    between atoms: _417  and  _418
REMARK  163  A    between atoms: _428  and  _430
REMARK  164  A    between atoms: _430  and  _431
REMARK  165  A    between atoms: _433  and  _435
REMARK  166  A    between atoms: _435  and  _436
REMARK  167  A    between atoms: _439  and  _441
REMARK  168  A    between atoms: _441  and  _442
REMARK  169  A    between atoms: _441  and  _444
REMARK  170  A    between atoms: _444  and  _445
REMARK  171  A    between atoms: _445  and  _446
REMARK  172  A    between atoms: _448  and  _450
REMARK  173  A    between atoms: _450  and  _451
REMARK  174  A    between atoms: _454  and  _456
REMARK  175  A    between atoms: _456  and  _457
REMARK  176  A    between atoms: _456  and  _459
REMARK  177  A    between atoms: _459  and  _460
REMARK  178  A    between atoms: _466  and  _468
REMARK  179  A    between atoms: _468  and  _469
REMARK  180  A    between atoms: _468  and  _471
REMARK  181  A    between atoms: _473  and  _475
REMARK  182  A    between atoms: _475  and  _476
REMARK  183  A    between atoms: _478  and  _480
REMARK  184  A    between atoms: _480  and  _481
REMARK  185  A    between atoms: _480  and  _483
REMARK  186  A    between atoms: _483  and  _484
REMARK  187  A    between atoms: _494  and  _496
REMARK  188  A    between atoms: _496  and  _497
REMARK  189  A    between atoms: _500  and  _502
REMARK  190  A    between atoms: _502  and  _503
REMARK  191  A    between atoms: _502  and  _505
REMARK  192  A    between atoms: _505  and  _506
REMARK  193  A    between atoms: _511  and  _513
REMARK  194  A    between atoms: _513  and  _514
REMARK  195  A    between atoms: _513  and  _516
REMARK  196  A    between atoms: _516  and  _517
REMARK                            x       y       z     vdW  Elec       q    Type
REMARK                         _______ _______ _______ _____ _____    ______ ____
ROOT
ATOM      1  CA  TYR A   2     -35.654 -69.805  24.275  0.00  0.00    +0.141 C 
ENDROOT
BRANCH   1   3
ATOM      2  C   MET A   1     -35.553 -70.048  21.843  0.00  0.00    +0.238 C 
ATOM      3  N   TYR A   2     -36.195 -69.627  22.926  0.00  0.00    -0.298 N 
ATOM      4  H   TYR A   2     -37.114 -69.154  22.812  0.00  0.00    +0.150 HD
ATOM      5  O   MET A   1     -34.507 -70.700  21.882  0.00  0.00    -0.274 OA
BRANCH   2   6
ATOM      6  CA  MET A   1     -36.201 -69.685  20.515  0.00  0.00    +0.146 C 
BRANCH   6   7
ATOM      7  N   MET A   1     -37.598 -70.115  20.468  0.00  0.00    -0.238 NA
ATOM      8  H   MET A   1     -38.331 -69.406  20.263  0.00  0.00    +0.142 HD
ENDBRANCH   6   7
BRANCH   6   9
ATOM      9  CB  MET A   1     -36.095 -68.171  20.290  0.00  0.00    +0.038 C 
BRANCH   9  10
ATOM     10  CG  MET A   1     -34.665 -67.657  20.210  0.00  0.00    +0.060 C 
BRANCH  10  11
ATOM     11  SD  MET A   1     -34.538 -65.856  20.228  0.00  0.00    -0.139 S 
ATOM     12  CE  MET A   1     -35.514 -65.422  18.777  0.00  0.00    +0.069 C 
ENDBRANCH  10  11
ENDBRANCH   9  10
ENDBRANCH   6   9
ENDBRANCH   2   6
ENDBRANCH   1   3
BRANCH   1  13
ATOM     13  C   TYR A   2     -35.567 -71.275  24.698  0.00  0.00    +0.227 C 
ATOM     14  O   TYR A   2     -34.620 -71.678  25.384  0.00  0.00    -0.286 OA
ENDBRANCH   1  13
BRANCH   1  15
ATOM     15  CB  TYR A   2     -36.507 -69.031  25.283  0.00  0.00    +0.054 C 
BRANCH  15  16
ATOM     16  CG  TYR A   2     -36.595 -67.540  25.007  0.00  0.00    -0.020 A 
ATOM     17  CD2 TYR A   2     -37.692 -66.798  25.441  0.00  0.00    -0.001 A 
ATOM     18  CE2 TYR A   2     -37.778 -65.431  25.201  0.00  0.00    +0.036 A 
ATOM     19  CZ  TYR A   2     -36.762 -64.787  24.520  0.00  0.00    +0.134 A 
ATOM     20  CE1 TYR A   2     -35.660 -65.498  24.077  0.00  0.00    +0.036 A 
ATOM     21  CD1 TYR A   2     -35.580 -66.873  24.322  0.00  0.00    -0.001 A 
BRANCH  19  22
ATOM     22  OH  TYR A   2     -36.852 -63.432  24.288  0.00  0.00    -0.506 OA
ATOM     23  HH  TYR A   2     -36.050 -63.129  23.793  0.00  0.00    +0.292 HD
ENDBRANCH  19  22
ENDBRANCH  15  16
ENDBRANCH   1  15
TORSDOF 10
REMARK  Name = ../refined-set-2016/4pfu/4pfu_pocket.pdb
REMARK  196 active torsions:
REMARK  status: ('A' for Active; 'I' for Inactive)
REMARK    1  A    between atoms: _1  and  _3
REMARK    2  A    between atoms: _3  and  _4
REMARK    3  A    between atoms: _3  and  _6
REMARK    4  A    between atoms: _6  and  _7
REMARK    5  A    between atoms: _12  and  _13
REMARK    6  A    between atoms: _15  and  _17
REMARK    7  A    between atoms: _17  and  _18
REMARK    8  A    between atoms: _20  and  _22
REMARK    9  A    between atoms: _22  and  _23
REMARK   10  A    between atoms: _25  and  _27
REMARK   11  A    between atoms: _27  and  _28
REMARK   12  A    between atoms: _27  and  _30
REMARK   13  A    between atoms: _30  and  _31
REMARK   14  A    between atoms: _33  and  _35
REMARK   15  A    between atoms: _35  and  _36
REMARK   16  A    between atoms: _35  and  _38
REMARK   17  A    between atoms: _38  and  _39
REMARK   18  A    between atoms: _42  and  _44
REMARK   19  A    between atoms: _44  and  _45
REMARK   20  A    between atoms: _44  and  _47
REMARK   21  A    between atoms: _47  and  _48
REMARK   22  A    between atoms: _59  and  _60
REMARK   23  A    between atoms: _65  and  _67
REMARK   24  A    between atoms: _67  and  _68
REMARK   25  A    between atoms: _67  and  _70
REMARK   26  A    between atoms: _70  and  _71
REMARK   27  A    between atoms: _73  and  _75
REMARK   28  A    between atoms: _75  and  _76
REMARK   29  A    between atoms: _75  and  _78
REMARK   30  A    between atoms: _78  and  _79
REMARK   31  A    between atoms: _84  and  _86
REMARK   32  A    between atoms: _86  and  _87
REMARK   33  A    between atoms: _86  and  _89
REMARK   34  A    between atoms: _89  and  _90
REMARK   35  A    between atoms: _95  and  _97
REMARK   36  A    between atoms: _97  and  _98
REMARK   37  A    between atoms: _101  and  _103
REMARK   38  A    between atoms: _103  and  _104
REMARK   39  A    between atoms: _103  and  _106
REMARK   40  A    between atoms: _106  and  _107
REMARK   41  A    between atoms: _109  and  _111
REMARK   42  A    between atoms: _111  and  _112
REMARK   43  A    between atoms: _111  and  _114
REMARK   44  A    between atoms: _114  and  _115
REMARK   45  A    between atoms: _120  and  _122
REMARK   46  A    between atoms: _122  and  _123
REMARK   47  A    between atoms: _122  and  _125
REMARK   48  A    between atoms: _125  and  _126
REMARK   49  A    between atoms: _132  and  _134
REMARK   50  A    between atoms: _134  and  _135
REMARK   51  A    between atoms: _134  and  _137
REMARK   52  A    between atoms: _137  and  _138
REMARK   53  A    between atoms: _138  and  _139
REMARK   54  A    between atoms: _141  and  _143
REMARK   55  A    between atoms: _143  and  _144
REMARK   56  A    between atoms: _143  and  _146
REMARK   57  A    between atoms: _146  and  _147
REMARK   58  A    between atoms: _150  and  _152
REMARK   59  A    between atoms: _152  and  _153
REMARK   60  A    between atoms: _152  and  _155
REMARK   61  A    between atoms: _155  and  _156
REMARK   62  A    between atoms: _158  and  _160
REMARK   63  A    between atoms: _160  and  _161
REMARK   64  A    between atoms: _160  and  _163
REMARK   65  A    between atoms: _163  and  _164
REMARK   66  A    between atoms: _167  and  _169
REMARK   67  A    between atoms: _169  and  _170
REMARK   68  A    between atoms: _169  and  _172
REMARK   69  A    between atoms: _175  and  _177
REMARK   70  A    between atoms: _177  and  _178
REMARK   71  A    between atoms: _177  and  _180
REMARK   72  A    between atoms: _183  and  _185
REMARK   73  A    between atoms: _185  and  _186
REMARK   74  A    between atoms: _185  and  _188
REMARK   75  A    between atoms: _188  and  _189
REMARK   76  A    between atoms: _194  and  _195
REMARK   77  A    between atoms: _197  and  _199
REMARK   78  A    between atoms: _199  and  _200
REMARK   79  A    between atoms: _199  and  _202
REMARK   80  A    between atoms: _205  and  _207
REMARK   81  A    between atoms: _207  and  _208
REMARK   82  A    between atoms: _207  and  _210
REMARK   83  A    between atoms: _213  and  _214
REMARK   84  A    between atoms: _219  and  _221
REMARK   85  A    between atoms: _221  and  _222
REMARK   86  A    between atoms: _221  and  _224
REMARK   87  A    between atoms: _224  and  _225
REMARK   88  A    between atoms: _230  and  _231
REMARK   89  A    between atoms: _233  and  _235
REMARK   90  A    between atoms: _235  and  _236
REMARK   91  A    between atoms: _238  and  _240
REMARK   92  A    between atoms: _240  and  _241
REMARK   93  A    between atoms: _240  and  _243
REMARK   94  A    between atoms: _243  and  _244
REMARK   95  A    between atoms: _254  and  _256
REMARK   96  A    between atoms: _256  and  _257
REMARK   97  A    between atoms: _256  and  _259
REMARK   98  A    between atoms: _259  and  _260
REMARK   99  A    between atoms: _263  and  _265
REMARK  100  A    between atoms: _265  and  _266
REMARK  101  A    between atoms: _265  and  _268
REMARK  102  A    between atoms: _268  and  _269
REMARK  103  A    between atoms: _272  and  _274
REMARK  104  A    between atoms: _274  and  _275
REMARK  105  A    between atoms: _274  and  _277
REMARK  106  A    between atoms: _277  and  _278
REMARK  107  A    between atoms: _288  and  _290
REMARK  108  A    between atoms: _290  and  _291
REMARK  109  A    between atoms: _290  and  _293
REMARK  110  A    between atoms: _293  and  _294
REMARK  111  A    between atoms: _294  and  _295
REMARK  112  A    between atoms: _297  and  _299
REMARK  113  A    between atoms: _299  and  _300
REMARK  114  A    between atoms: _299  and  _302
REMARK  115  A    between atoms: _302  and  _303
REMARK  116  A    between atoms: _305  and  _307
REMARK  117  A    between atoms: _307  and  _308
REMARK  118  A    between atoms: _307  and  _310
REMARK  119  A    between atoms: _310  and  _311
REMARK  120  A    between atoms: _316  and  _317
REMARK  121  A    between atoms: _319  and  _321
REMARK  122  A    between atoms: _321  and  _322
REMARK  123  A    between atoms: _321  and  _324
REMARK  124  A    between atoms: _324  and  _325
REMARK  125  A    between atoms: _330  and  _331
REMARK  126  A    between atoms: _333  and  _335
REMARK  127  A    between atoms: _335  and  _336
REMARK  128  A    between atoms: _335  and  _338
REMARK  129  A    between atoms: _338  and  _339
REMARK  130  A    between atoms: _339  and  _340
REMARK  131  A    between atoms: _342  and  _344
REMARK  132  A    between atoms: _344  and  _345
REMARK  133  A    between atoms: _344  and  _347
REMARK  134  A    between atoms: _347  and  _348
REMARK  135  A    between atoms: _353  and  _354
REMARK  136  A    between atoms: _356  and  _358
REMARK  137  A    between atoms: _358  and  _359
REMARK  138  A    between atoms: _358  and  _361
REMARK  139  A    between atoms: _361  and  _362
REMARK  140  A    between atoms: _362  and  _363
REMARK  141  A    between atoms: _365  and  _367
REMARK  142  A    between atoms: _367  and  _368
REMARK  143  A    between atoms: _367  and  _370
REMARK  144  A    between atoms: _370  and  _371
REMARK  145  A    between atoms: _376  and  _378
REMARK  146  A    between atoms: _378  and  _379
REMARK  147  A    between atoms: _382  and  _384
REMARK  148  A    between atoms: _384  and  _385
REMARK  149  A    between atoms: _384  and  _387
REMARK  150  A    between atoms: _387  and  _388
REMARK  151  A    between atoms: _393  and  _395
REMARK  152  A    between atoms: _395  and  _396
REMARK  153  A    between atoms: _398  and  _400
REMARK  154  A    between atoms: _400  and  _401
REMARK  155  A    between atoms: _400  and  _403
REMARK  156  A    between atoms: _403  and  _404
REMARK  157  A    between atoms: _407  and  _409
REMARK  158  A    between atoms: _409  and  _410
REMARK  159  A    between atoms: _412  and  _414
REMARK  160  A    between atoms: _414  and  _415
REMARK  161  A    between atoms: _414  and  _417
REMARK  162  A    between atoms: _417  and  _418
REMARK  163  A    between atoms: _428  and  _430
REMARK  164  A    between atoms: _430  and  _431
REMARK  165  A    between atoms: _433  and  _435
REMARK  166  A    between atoms: _435  and  _436
REMARK  167  A    between atoms: _439  and  _441
REMARK  168  A    between atoms: _441  and  _442
REMARK  169  A    between atoms: _441  and  _444
REMARK  170  A    between atoms: _444  and  _445
REMARK  171  A    between atoms: _445  and  _446
REMARK  172  A    between atoms: _448  and  _450
REMARK  173  A    between atoms: _450  and  _451
REMARK  174  A    between atoms: _454  and  _456
REMARK  175  A    between atoms: _456  and  _457
REMARK  176  A    between atoms: _456  and  _459
REMARK  177  A    between atoms: _459  and  _460
REMARK  178  A    between atoms: _466  and  _468
REMARK  179  A    between atoms: _468  and  _469
REMARK  180  A    between atoms: _468  and  _471
REMARK  181  A    between atoms: _473  and  _475
REMARK  182  A    between atoms: _475  and  _476
REMARK  183  A    between atoms: _478  and  _480
REMARK  184  A    between atoms: _480  and  _481
REMARK  185  A    between atoms: _480  and  _483
REMARK  186  A    between atoms: _483  and  _484
REMARK  187  A    between atoms: _494  and  _496
REMARK  188  A    between atoms: _496  and  _497
REMARK  189  A    between atoms: _500  and  _502
REMARK  190  A    between atoms: _502  and  _503
REMARK  191  A    between atoms: _502  and  _505
REMARK  192  A    between atoms: _505  and  _506
REMARK  193  A    between atoms: _511  and  _513
REMARK  194  A    between atoms: _513  and  _514
REMARK  195  A    between atoms: _513  and  _516
REMARK  196  A    between atoms: _516  and  _517
REMARK                            x       y       z     vdW  Elec       q    Type
REMARK                         _______ _______ _______ _____ _____    ______ ____
ROOT
ATOM      1  C   ALA A   3     -31.339 -60.881  16.548  0.00  0.00    +0.241 C 
ATOM      2  N   ASN A   4     -31.462 -61.866  17.437  0.00  0.00    -0.297 N 
ATOM      3  H   ASN A   4     -31.415 -62.847  17.096  0.00  0.00    +0.150 HD
ATOM      4  O   ALA A   3     -31.262 -59.692  16.858  0.00  0.00    -0.273 OA
ENDROOT
BRANCH   1   5
ATOM      5  CA  ALA A   3     -31.284 -61.331  15.090  0.00  0.00    +0.149 C 
ATOM      6  CB  ALA A   3     -31.695 -60.204  14.145  0.00  0.00    +0.031 C 
BRANCH   5   8
ATOM      7  C   ASN A   2     -31.849 -63.483  14.091  0.00  0.00    +0.241 C 
ATOM      8  N   ALA A   3     -32.152 -62.495  14.927  0.00  0.00    -0.297 N 
ATOM      9  H   ALA A   3     -33.031 -62.552  15.480  0.00  0.00    +0.150 HD
ATOM     10  O   ASN A   2     -30.905 -63.425  13.307  0.00  0.00    -0.273 OA
BRANCH   7  11
ATOM     11  CA  ASN A   2     -32.759 -64.715  14.141  0.00  0.00    +0.158 C 
BRANCH  11  14
ATOM     12  C   MET A   1     -34.189 -65.961  12.604  0.00  0.00    +0.238 C 
ATOM     13  O   MET A   1     -35.134 -65.987  13.403  0.00  0.00    -0.274 OA
ATOM     14  N   ASN A   2     -33.076 -65.250  12.815  0.00  0.00    -0.297 N 
ATOM     15  H   ASN A   2     -32.424 -65.074  12.024  0.00  0.00    +0.150 HD
BRANCH  12  16
ATOM     16  CA  MET A   1     -34.252 -66.796  11.324  0.00  0.00    +0.146 C 
BRANCH  16  17
ATOM     17  N   MET A   1     -34.834 -68.087  11.670  0.00  0.00    -0.238 NA
ATOM     18  H   MET A   1     -35.807 -68.310  11.379  0.00  0.00    +0.142 HD
ENDBRANCH  16  17
BRANCH  16  19
ATOM     19  CB  MET A   1     -35.064 -66.104  10.232  0.00  0.00    +0.038 C 
BRANCH  19  20
ATOM     20  CG  MET A   1     -34.463 -64.790   9.762  0.00  0.00    +0.060 C 
BRANCH  20  21
ATOM     21  SD  MET A   1     -35.197 -64.234   8.214  0.00  0.00    -0.139 S 
ATOM     22  CE  MET A   1     -34.496 -65.419   7.050  0.00  0.00    +0.069 C 
ENDBRANCH  20  21
ENDBRANCH  19  20
ENDBRANCH  16  19
ENDBRANCH  12  16
ENDBRANCH  11  14
BRANCH  11  23
ATOM     23  CB  ASN A   2     -32.118 -65.828  14.982  0.00  0.00    +0.114 C 
BRANCH  23  24
ATOM     24  CG  ASN A   2     -31.894 -65.447  16.464  0.00  0.00    +0.222 C 
ATOM     25  ND2 ASN A   2     -32.524 -66.194  17.375  0.00  0.00    -0.329 N 
ATOM     26 HD21 ASN A   2     -32.366 -66.022  18.388  0.00  0.00    +0.145 HD
ATOM     27 HD22 ASN A   2     -33.173 -66.948  17.071  0.00  0.00    +0.145 HD
ATOM     28  OD1 ASN A   2     -31.122 -64.549  16.778  0.00  0.00    -0.275 OA
ENDBRANCH  23  24
ENDBRANCH  11  23
ENDBRANCH   7  11
ENDBRANCH   5   8
ENDBRANCH   1   5
BRANCH   2  29
ATOM     29  CA  ASN A   4     -31.658 -61.640  18.853  0.00  0.00    +0.158 C 
BRANCH  29  30
ATOM     30  C   ASN A   4     -30.334 -61.710  19.576  0.00  0.00    +0.241 C 
ATOM     31  N   GLY A   5     -29.782 -60.555  19.924  0.00  0.00    -0.295 N 
ATOM     32  H   GLY A   5     -30.261 -59.665  19.681  0.00  0.00    +0.150 HD
ATOM     33  O   ASN A   4     -29.819 -62.801  19.812  0.00  0.00    -0.273 OA
BRANCH  31  34
ATOM     34  CA  GLY A   5     -28.515 -60.515  20.642  0.00  0.00    +0.176 C 
BRANCH  34  35
ATOM     35  C   GLY A   5     -27.345 -60.231  19.719  0.00  0.00    +0.243 C 
ATOM     36  O   GLY A   5     -26.208 -60.115  20.161  0.00  0.00    -0.273 OA
ATOM     37  N   THR A   6     -27.612 -60.118  18.421  0.00  0.00    -0.295 N 
ATOM     38  H   THR A   6     -28.587 -60.223  18.076  0.00  0.00    +0.150 HD
BRANCH  37  39
ATOM     39  CA  THR A   6     -26.526 -59.846  17.484  0.00  0.00    +0.176 C 
BRANCH  39  40
ATOM     40  C   THR A   6     -26.423 -58.359  17.152  0.00  0.00    +0.243 C 
ATOM     41  N   GLY A   7     -26.901 -57.516  18.057  0.00  0.00    -0.296 N 
ATOM     42  H   GLY A   7     -27.232 -57.882  18.972  0.00  0.00    +0.150 HD
ATOM     43  O   THR A   6     -25.909 -57.986  16.095  0.00  0.00    -0.273 OA
BRANCH  41  44
ATOM     44  CA  GLY A   7     -26.970 -56.090  17.792  0.00  0.00    +0.163 C 
BRANCH  44  45
ATOM     45  C   GLY A   7     -25.630 -55.418  18.016  0.00  0.00    +0.229 C 
ATOM     46  O   GLY A   7     -24.788 -55.931  18.764  0.00  0.00    -0.286 OA
ENDBRANCH  44  45
ENDBRANCH  41  44
ENDBRANCH  39  40
BRANCH  39  47
ATOM     47  CB  THR A   6     -26.704 -60.630  16.182  0.00  0.00    +0.137 C 
ATOM     48  CG2 THR A   6     -26.692 -62.130  16.472  0.00  0.00    +0.034 C 
BRANCH  47  49
ATOM     49  OG1 THR A   6     -27.959 -60.275  15.591  0.00  0.00    -0.382 OA
ATOM     50  HG1 THR A   6     -28.080 -60.779  14.748  0.00  0.00    +0.210 HD
ENDBRANCH  47  49
ENDBRANCH  39  47
ENDBRANCH  37  39
ENDBRANCH  34  35
ENDBRANCH  31  34
ENDBRANCH  29  30
BRANCH  29  51
ATOM     51  CB  ASN A   4     -32.627 -62.682  19.432  0.00  0.00    +0.114 C 
BRANCH  51  52
ATOM     52  CG  ASN A   4     -33.319 -62.204  20.699  0.00  0.00    +0.222 C 
ATOM     53  OD1 ASN A   4     -33.088 -62.731  21.794  0.00  0.00    -0.275 OA
ATOM     54  ND2 ASN A   4     -34.167 -61.195  20.555  0.00  0.00    -0.329 N 
ATOM     55 HD21 ASN A   4     -34.669 -60.816  21.383  0.00  0.00    +0.145 HD
ATOM     56 HD22 ASN A   4     -34.330 -60.783  19.614  0.00  0.00    +0.145 HD
ENDBRANCH  51  52
ENDBRANCH  29  51
ENDBRANCH   2  29
TORSDOF 23
REMARK  Name = ../refined-set-2016/4pfu/4pfu_pocket.pdb
REMARK  196 active torsions:
REMARK  status: ('A' for Active; 'I' for Inactive)
REMARK    1  A    between atoms: _1  and  _3
REMARK    2  A    between atoms: _3  and  _4
REMARK    3  A    between atoms: _3  and  _6
REMARK    4  A    between atoms: _6  and  _7
REMARK    5  A    between atoms: _12  and  _13
REMARK    6  A    between atoms: _15  and  _17
REMARK    7  A    between atoms: _17  and  _18
REMARK    8  A    between atoms: _20  and  _22
REMARK    9  A    between atoms: _22  and  _23
REMARK   10  A    between atoms: _25  and  _27
REMARK   11  A    between atoms: _27  and  _28
REMARK   12  A    between atoms: _27  and  _30
REMARK   13  A    between atoms: _30  and  _31
REMARK   14  A    between atoms: _33  and  _35
REMARK   15  A    between atoms: _35  and  _36
REMARK   16  A    between atoms: _35  and  _38
REMARK   17  A    between atoms: _38  and  _39
REMARK   18  A    between atoms: _42  and  _44
REMARK   19  A    between atoms: _44  and  _45
REMARK   20  A    between atoms: _44  and  _47
REMARK   21  A    between atoms: _47  and  _48
REMARK   22  A    between atoms: _59  and  _60
REMARK   23  A    between atoms: _65  and  _67
REMARK   24  A    between atoms: _67  and  _68
REMARK   25  A    between atoms: _67  and  _70
REMARK   26  A    between atoms: _70  and  _71
REMARK   27  A    between atoms: _73  and  _75
REMARK   28  A    between atoms: _75  and  _76
REMARK   29  A    between atoms: _75  and  _78
REMARK   30  A    between atoms: _78  and  _79
REMARK   31  A    between atoms: _84  and  _86
REMARK   32  A    between atoms: _86  and  _87
REMARK   33  A    between atoms: _86  and  _89
REMARK   34  A    between atoms: _89  and  _90
REMARK   35  A    between atoms: _95  and  _97
REMARK   36  A    between atoms: _97  and  _98
REMARK   37  A    between atoms: _101  and  _103
REMARK   38  A    between atoms: _103  and  _104
REMARK   39  A    between atoms: _103  and  _106
REMARK   40  A    between atoms: _106  and  _107
REMARK   41  A    between atoms: _109  and  _111
REMARK   42  A    between atoms: _111  and  _112
REMARK   43  A    between atoms: _111  and  _114
REMARK   44  A    between atoms: _114  and  _115
REMARK   45  A    between atoms: _120  and  _122
REMARK   46  A    between atoms: _122  and  _123
REMARK   47  A    between atoms: _122  and  _125
REMARK   48  A    between atoms: _125  and  _126
REMARK   49  A    between atoms: _132  and  _134
REMARK   50  A    between atoms: _134  and  _135
REMARK   51  A    between atoms: _134  and  _137
REMARK   52  A    between atoms: _137  and  _138
REMARK   53  A    between atoms: _138  and  _139
REMARK   54  A    between atoms: _141  and  _143
REMARK   55  A    between atoms: _143  and  _144
REMARK   56  A    between atoms: _143  and  _146
REMARK   57  A    between atoms: _146  and  _147
REMARK   58  A    between atoms: _150  and  _152
REMARK   59  A    between atoms: _152  and  _153
REMARK   60  A    between atoms: _152  and  _155
REMARK   61  A    between atoms: _155  and  _156
REMARK   62  A    between atoms: _158  and  _160
REMARK   63  A    between atoms: _160  and  _161
REMARK   64  A    between atoms: _160  and  _163
REMARK   65  A    between atoms: _163  and  _164
REMARK   66  A    between atoms: _167  and  _169
REMARK   67  A    between atoms: _169  and  _170
REMARK   68  A    between atoms: _169  and  _172
REMARK   69  A    between atoms: _175  and  _177
REMARK   70  A    between atoms: _177  and  _178
REMARK   71  A    between atoms: _177  and  _180
REMARK   72  A    between atoms: _183  and  _185
REMARK   73  A    between atoms: _185  and  _186
REMARK   74  A    between atoms: _185  and  _188
REMARK   75  A    between atoms: _188  and  _189
REMARK   76  A    between atoms: _194  and  _195
REMARK   77  A    between atoms: _197  and  _199
REMARK   78  A    between atoms: _199  and  _200
REMARK   79  A    between atoms: _199  and  _202
REMARK   80  A    between atoms: _205  and  _207
REMARK   81  A    between atoms: _207  and  _208
REMARK   82  A    between atoms: _207  and  _210
REMARK   83  A    between atoms: _213  and  _214
REMARK   84  A    between atoms: _219  and  _221
REMARK   85  A    between atoms: _221  and  _222
REMARK   86  A    between atoms: _221  and  _224
REMARK   87  A    between atoms: _224  and  _225
REMARK   88  A    between atoms: _230  and  _231
REMARK   89  A    between atoms: _233  and  _235
REMARK   90  A    between atoms: _235  and  _236
REMARK   91  A    between atoms: _238  and  _240
REMARK   92  A    between atoms: _240  and  _241
REMARK   93  A    between atoms: _240  and  _243
REMARK   94  A    between atoms: _243  and  _244
REMARK   95  A    between atoms: _254  and  _256
REMARK   96  A    between atoms: _256  and  _257
REMARK   97  A    between atoms: _256  and  _259
REMARK   98  A    between atoms: _259  and  _260
REMARK   99  A    between atoms: _263  and  _265
REMARK  100  A    between atoms: _265  and  _266
REMARK  101  A    between atoms: _265  and  _268
REMARK  102  A    between atoms: _268  and  _269
REMARK  103  A    between atoms: _272  and  _274
REMARK  104  A    between atoms: _274  and  _275
REMARK  105  A    between atoms: _274  and  _277
REMARK  106  A    between atoms: _277  and  _278
REMARK  107  A    between atoms: _288  and  _290
REMARK  108  A    between atoms: _290  and  _291
REMARK  109  A    between atoms: _290  and  _293
REMARK  110  A    between atoms: _293  and  _294
REMARK  111  A    between atoms: _294  and  _295
REMARK  112  A    between atoms: _297  and  _299
REMARK  113  A    between atoms: _299  and  _300
REMARK  114  A    between atoms: _299  and  _302
REMARK  115  A    between atoms: _302  and  _303
REMARK  116  A    between atoms: _305  and  _307
REMARK  117  A    between atoms: _307  and  _308
REMARK  118  A    between atoms: _307  and  _310
REMARK  119  A    between atoms: _310  and  _311
REMARK  120  A    between atoms: _316  and  _317
REMARK  121  A    between atoms: _319  and  _321
REMARK  122  A    between atoms: _321  and  _322
REMARK  123  A    between atoms: _321  and  _324
REMARK  124  A    between atoms: _324  and  _325
REMARK  125  A    between atoms: _330  and  _331
REMARK  126  A    between atoms: _333  and  _335
REMARK  127  A    between atoms: _335  and  _336
REMARK  128  A    between atoms: _335  and  _338
REMARK  129  A    between atoms: _338  and  _339
REMARK  130  A    between atoms: _339  and  _340
REMARK  131  A    between atoms: _342  and  _344
REMARK  132  A    between atoms: _344  and  _345
REMARK  133  A    between atoms: _344  and  _347
REMARK  134  A    between atoms: _347  and  _348
REMARK  135  A    between atoms: _353  and  _354
REMARK  136  A    between atoms: _356  and  _358
REMARK  137  A    between atoms: _358  and  _359
REMARK  138  A    between atoms: _358  and  _361
REMARK  139  A    between atoms: _361  and  _362
REMARK  140  A    between atoms: _362  and  _363
REMARK  141  A    between atoms: _365  and  _367
REMARK  142  A    between atoms: _367  and  _368
REMARK  143  A    between atoms: _367  and  _370
REMARK  144  A    between atoms: _370  and  _371
REMARK  145  A    between atoms: _376  and  _378
REMARK  146  A    between atoms: _378  and  _379
REMARK  147  A    between atoms: _382  and  _384
REMARK  148  A    between atoms: _384  and  _385
REMARK  149  A    between atoms: _384  and  _387
REMARK  150  A    between atoms: _387  and  _388
REMARK  151  A    between atoms: _393  and  _395
REMARK  152  A    between atoms: _395  and  _396
REMARK  153  A    between atoms: _398  and  _400
REMARK  154  A    between atoms: _400  and  _401
REMARK  155  A    between atoms: _400  and  _403
REMARK  156  A    between atoms: _403  and  _404
REMARK  157  A    between atoms: _407  and  _409
REMARK  158  A    between atoms: _409  and  _410
REMARK  159  A    between atoms: _412  and  _414
REMARK  160  A    between atoms: _414  and  _415
REMARK  161  A    between atoms: _414  and  _417
REMARK  162  A    between atoms: _417  and  _418
REMARK  163  A    between atoms: _428  and  _430
REMARK  164  A    between atoms: _430  and  _431
REMARK  165  A    between atoms: _433  and  _435
REMARK  166  A    between atoms: _435  and  _436
REMARK  167  A    between atoms: _439  and  _441
REMARK  168  A    between atoms: _441  and  _442
REMARK  169  A    between atoms: _441  and  _444
REMARK  170  A    between atoms: _444  and  _445
REMARK  171  A    between atoms: _445  and  _446
REMARK  172  A    between atoms: _448  and  _450
REMARK  173  A    between atoms: _450  and  _451
REMARK  174  A    between atoms: _454  and  _456
REMARK  175  A    between atoms: _456  and  _457
REMARK  176  A    between atoms: _456  and  _459
REMARK  177  A    between atoms: _459  and  _460
REMARK  178  A    between atoms: _466  and  _468
REMARK  179  A    between atoms: _468  and  _469
REMARK  180  A    between atoms: _468  and  _471
REMARK  181  A    between atoms: _473  and  _475
REMARK  182  A    between atoms: _475  and  _476
REMARK  183  A    between atoms: _478  and  _480
REMARK  184  A    between atoms: _480  and  _481
REMARK  185  A    between atoms: _480  and  _483
REMARK  186  A    between atoms: _483  and  _484
REMARK  187  A    between atoms: _494  and  _496
REMARK  188  A    between atoms: _496  and  _497
REMARK  189  A    between atoms: _500  and  _502
REMARK  190  A    between atoms: _502  and  _503
REMARK  191  A    between atoms: _502  and  _505
REMARK  192  A    between atoms: _505  and  _506
REMARK  193  A    between atoms: _511  and  _513
REMARK  194  A    between atoms: _513  and  _514
REMARK  195  A    between atoms: _513  and  _516
REMARK  196  A    between atoms: _516  and  _517
REMARK                            x       y       z     vdW  Elec       q    Type
REMARK                         _______ _______ _______ _____ _____    ______ ____
ROOT
ATOM      1  CG  TRP A   1     -29.697 -59.458   5.646  0.00  0.00    -0.002 A 
ATOM      2  CD1 TRP A   1     -30.324 -58.373   6.197  0.00  0.00    +0.068 A 
ATOM      3  NE1 TRP A   1     -31.605 -58.703   6.582  0.00  0.00    -0.352 N 
ATOM      4  HE1 TRP A   1     -32.285 -58.058   7.032  0.00  0.00    +0.166 HD
ATOM      5  CE2 TRP A   1     -31.840 -60.020   6.276  0.00  0.00    +0.056 A 
ATOM      6  CZ2 TRP A   1     -32.986 -60.799   6.471  0.00  0.00    +0.017 A 
ATOM      7  CH2 TRP A   1     -32.938 -62.119   6.077  0.00  0.00    +0.001 A 
ATOM      8  CZ3 TRP A   1     -31.788 -62.663   5.476  0.00  0.00    +0.000 A 
ATOM      9  CE3 TRP A   1     -30.634 -61.876   5.280  0.00  0.00    +0.001 A 
ATOM     10  CD2 TRP A   1     -30.661 -60.533   5.680  0.00  0.00    +0.013 A 
ENDROOT
BRANCH   1  11
ATOM     11  CB  TRP A   1     -28.281 -59.506   5.085  0.00  0.00    +0.053 C 
BRANCH  11  12
ATOM     12  CA  TRP A   1     -27.173 -59.950   6.069  0.00  0.00    +0.137 C 
BRANCH  12  13
ATOM     13  N   TRP A   1     -27.287 -61.377   6.396  0.00  0.00    -0.239 NA
ATOM     14  H   TRP A   1     -27.743 -61.664   7.286  0.00  0.00    +0.142 HD
ENDBRANCH  12  13
BRANCH  12  15
ATOM     15  C   TRP A   1     -27.206 -59.100   7.334  0.00  0.00    +0.224 C 
ATOM     16  O   TRP A   1     -27.467 -59.605   8.418  0.00  0.00    -0.287 OA
ENDBRANCH  12  15
ENDBRANCH  11  12
ENDBRANCH   1  11
TORSDOF 4
REMARK  Name = ../refined-set-2016/4pfu/4pfu_pocket.pdb
REMARK  196 active torsions:
REMARK  status: ('A' for Active; 'I' for Inactive)
REMARK    1  A    between atoms: _1  and  _3
REMARK    2  A    between atoms: _3  and  _4
REMARK    3  A    between atoms: _3  and  _6
REMARK    4  A    between atoms: _6  and  _7
REMARK    5  A    between atoms: _12  and  _13
REMARK    6  A    between atoms: _15  and  _17
REMARK    7  A    between atoms: _17  and  _18
REMARK    8  A    between atoms: _20  and  _22
REMARK    9  A    between atoms: _22  and  _23
REMARK   10  A    between atoms: _25  and  _27
REMARK   11  A    between atoms: _27  and  _28
REMARK   12  A    between atoms: _27  and  _30
REMARK   13  A    between atoms: _30  and  _31
REMARK   14  A    between atoms: _33  and  _35
REMARK   15  A    between atoms: _35  and  _36
REMARK   16  A    between atoms: _35  and  _38
REMARK   17  A    between atoms: _38  and  _39
REMARK   18  A    between atoms: _42  and  _44
REMARK   19  A    between atoms: _44  and  _45
REMARK   20  A    between atoms: _44  and  _47
REMARK   21  A    between atoms: _47  and  _48
REMARK   22  A    between atoms: _59  and  _60
REMARK   23  A    between atoms: _65  and  _67
REMARK   24  A    between atoms: _67  and  _68
REMARK   25  A    between atoms: _67  and  _70
REMARK   26  A    between atoms: _70  and  _71
REMARK   27  A    between atoms: _73  and  _75
REMARK   28  A    between atoms: _75  and  _76
REMARK   29  A    between atoms: _75  and  _78
REMARK   30  A    between atoms: _78  and  _79
REMARK   31  A    between atoms: _84  and  _86
REMARK   32  A    between atoms: _86  and  _87
REMARK   33  A    between atoms: _86  and  _89
REMARK   34  A    between atoms: _89  and  _90
REMARK   35  A    between atoms: _95  and  _97
REMARK   36  A    between atoms: _97  and  _98
REMARK   37  A    between atoms: _101  and  _103
REMARK   38  A    between atoms: _103  and  _104
REMARK   39  A    between atoms: _103  and  _106
REMARK   40  A    between atoms: _106  and  _107
REMARK   41  A    between atoms: _109  and  _111
REMARK   42  A    between atoms: _111  and  _112
REMARK   43  A    between atoms: _111  and  _114
REMARK   44  A    between atoms: _114  and  _115
REMARK   45  A    between atoms: _120  and  _122
REMARK   46  A    between atoms: _122  and  _123
REMARK   47  A    between atoms: _122  and  _125
REMARK   48  A    between atoms: _125  and  _126
REMARK   49  A    between atoms: _132  and  _134
REMARK   50  A    between atoms: _134  and  _135
REMARK   51  A    between atoms: _134  and  _137
REMARK   52  A    between atoms: _137  and  _138
REMARK   53  A    between atoms: _138  and  _139
REMARK   54  A    between atoms: _141  and  _143
REMARK   55  A    between atoms: _143  and  _144
REMARK   56  A    between atoms: _143  and  _146
REMARK   57  A    between atoms: _146  and  _147
REMARK   58  A    between atoms: _150  and  _152
REMARK   59  A    between atoms: _152  and  _153
REMARK   60  A    between atoms: _152  and  _155
REMARK   61  A    between atoms: _155  and  _156
REMARK   62  A    between atoms: _158  and  _160
REMARK   63  A    between atoms: _160  and  _161
REMARK   64  A    between atoms: _160  and  _163
REMARK   65  A    between atoms: _163  and  _164
REMARK   66  A    between atoms: _167  and  _169
REMARK   67  A    between atoms: _169  and  _170
REMARK   68  A    between atoms: _169  and  _172
REMARK   69  A    between atoms: _175  and  _177
REMARK   70  A    between atoms: _177  and  _178
REMARK   71  A    between atoms: _177  and  _180
REMARK   72  A    between atoms: _183  and  _185
REMARK   73  A    between atoms: _185  and  _186
REMARK   74  A    between atoms: _185  and  _188
REMARK   75  A    between atoms: _188  and  _189
REMARK   76  A    between atoms: _194  and  _195
REMARK   77  A    between atoms: _197  and  _199
REMARK   78  A    between atoms: _199  and  _200
REMARK   79  A    between atoms: _199  and  _202
REMARK   80  A    between atoms: _205  and  _207
REMARK   81  A    between atoms: _207  and  _208
REMARK   82  A    between atoms: _207  and  _210
REMARK   83  A    between atoms: _213  and  _214
REMARK   84  A    between atoms: _219  and  _221
REMARK   85  A    between atoms: _221  and  _222
REMARK   86  A    between atoms: _221  and  _224
REMARK   87  A    between atoms: _224  and  _225
REMARK   88  A    between atoms: _230  and  _231
REMARK   89  A    between atoms: _233  and  _235
REMARK   90  A    between atoms: _235  and  _236
REMARK   91  A    between atoms: _238  and  _240
REMARK   92  A    between atoms: _240  and  _241
REMARK   93  A    between atoms: _240  and  _243
REMARK   94  A    between atoms: _243  and  _244
REMARK   95  A    between atoms: _254  and  _256
REMARK   96  A    between atoms: _256  and  _257
REMARK   97  A    between atoms: _256  and  _259
REMARK   98  A    between atoms: _259  and  _260
REMARK   99  A    between atoms: _263  and  _265
REMARK  100  A    between atoms: _265  and  _266
REMARK  101  A    between atoms: _265  and  _268
REMARK  102  A    between atoms: _268  and  _269
REMARK  103  A    between atoms: _272  and  _274
REMARK  104  A    between atoms: _274  and  _275
REMARK  105  A    between atoms: _274  and  _277
REMARK  106  A    between atoms: _277  and  _278
REMARK  107  A    between atoms: _288  and  _290
REMARK  108  A    between atoms: _290  and  _291
REMARK  109  A    between atoms: _290  and  _293
REMARK  110  A    between atoms: _293  and  _294
REMARK  111  A    between atoms: _294  and  _295
REMARK  112  A    between atoms: _297  and  _299
REMARK  113  A    between atoms: _299  and  _300
REMARK  114  A    between atoms: _299  and  _302
REMARK  115  A    between atoms: _302  and  _303
REMARK  116  A    between atoms: _305  and  _307
REMARK  117  A    between atoms: _307  and  _308
REMARK  118  A    between atoms: _307  and  _310
REMARK  119  A    between atoms: _310  and  _311
REMARK  120  A    between atoms: _316  and  _317
REMARK  121  A    between atoms: _319  and  _321
REMARK  122  A    between atoms: _321  and  _322
REMARK  123  A    between atoms: _321  and  _324
REMARK  124  A    between atoms: _324  and  _325
REMARK  125  A    between atoms: _330  and  _331
REMARK  126  A    between atoms: _333  and  _335
REMARK  127  A    between atoms: _335  and  _336
REMARK  128  A    between atoms: _335  and  _338
REMARK  129  A    between atoms: _338  and  _339
REMARK  130  A    between atoms: _339  and  _340
REMARK  131  A    between atoms: _342  and  _344
REMARK  132  A    between atoms: _344  and  _345
REMARK  133  A    between atoms: _344  and  _347
REMARK  134  A    between atoms: _347  and  _348
REMARK  135  A    between atoms: _353  and  _354
REMARK  136  A    between atoms: _356  and  _358
REMARK  137  A    between atoms: _358  and  _359
REMARK  138  A    between atoms: _358  and  _361
REMARK  139  A    between atoms: _361  and  _362
REMARK  140  A    between atoms: _362  and  _363
REMARK  141  A    between atoms: _365  and  _367
REMARK  142  A    between atoms: _367  and  _368
REMARK  143  A    between atoms: _367  and  _370
REMARK  144  A    between atoms: _370  and  _371
REMARK  145  A    between atoms: _376  and  _378
REMARK  146  A    between atoms: _378  and  _379
REMARK  147  A    between atoms: _382  and  _384
REMARK  148  A    between atoms: _384  and  _385
REMARK  149  A    between atoms: _384  and  _387
REMARK  150  A    between atoms: _387  and  _388
REMARK  151  A    between atoms: _393  and  _395
REMARK  152  A    between atoms: _395  and  _396
REMARK  153  A    between atoms: _398  and  _400
REMARK  154  A    between atoms: _400  and  _401
REMARK  155  A    between atoms: _400  and  _403
REMARK  156  A    between atoms: _403  and  _404
REMARK  157  A    between atoms: _407  and  _409
REMARK  158  A    between atoms: _409  and  _410
REMARK  159  A    between atoms: _412  and  _414
REMARK  160  A    between atoms: _414  and  _415
REMARK  161  A    between atoms: _414  and  _417
REMARK  162  A    between atoms: _417  and  _418
REMARK  163  A    between atoms: _428  and  _430
REMARK  164  A    between atoms: _430  and  _431
REMARK  165  A    between atoms: _433  and  _435
REMARK  166  A    between atoms: _435  and  _436
REMARK  167  A    between atoms: _439  and  _441
REMARK  168  A    between atoms: _441  and  _442
REMARK  169  A    between atoms: _441  and  _444
REMARK  170  A    between atoms: _444  and  _445
REMARK  171  A    between atoms: _445  and  _446
REMARK  172  A    between atoms: _448  and  _450
REMARK  173  A    between atoms: _450  and  _451
REMARK  174  A    between atoms: _454  and  _456
REMARK  175  A    between atoms: _456  and  _457
REMARK  176  A    between atoms: _456  and  _459
REMARK  177  A    between atoms: _459  and  _460
REMARK  178  A    between atoms: _466  and  _468
REMARK  179  A    between atoms: _468  and  _469
REMARK  180  A    between atoms: _468  and  _471
REMARK  181  A    between atoms: _473  and  _475
REMARK  182  A    between atoms: _475  and  _476
REMARK  183  A    between atoms: _478  and  _480
REMARK  184  A    between atoms: _480  and  _481
REMARK  185  A    between atoms: _480  and  _483
REMARK  186  A    between atoms: _483  and  _484
REMARK  187  A    between atoms: _494  and  _496
REMARK  188  A    between atoms: _496  and  _497
REMARK  189  A    between atoms: _500  and  _502
REMARK  190  A    between atoms: _502  and  _503
REMARK  191  A    between atoms: _502  and  _505
REMARK  192  A    between atoms: _505  and  _506
REMARK  193  A    between atoms: _511  and  _513
REMARK  194  A    between atoms: _513  and  _514
REMARK  195  A    between atoms: _513  and  _516
REMARK  196  A    between atoms: _516  and  _517
REMARK                            x       y       z     vdW  Elec       q    Type
REMARK                         _______ _______ _______ _____ _____    ______ ____
ROOT
ATOM      1  C   MET A   3     -33.327 -49.326  11.169  0.00  0.00    +0.241 C 
ATOM      2  O   MET A   3     -33.176 -48.109  11.029  0.00  0.00    -0.273 OA
ATOM      3  N   ALA A   4     -34.422 -49.973  10.785  0.00  0.00    -0.297 N 
ATOM      4  H   ALA A   4     -34.492 -50.996  10.961  0.00  0.00    +0.150 HD
ENDROOT
BRANCH   3   5
ATOM      5  CA  ALA A   4     -35.531 -49.289  10.123  0.00  0.00    +0.149 C 
ATOM      6  CB  ALA A   4     -36.656 -50.257   9.837  0.00  0.00    +0.031 C 
BRANCH   5   7
ATOM      7  C   ALA A   4     -36.015 -48.130  11.004  0.00  0.00    +0.241 C 
ATOM      8  O   ALA A   4     -36.295 -48.315  12.182  0.00  0.00    -0.273 OA
ATOM      9  N   PHE A   5     -36.049 -46.933  10.434  0.00  0.00    -0.298 N 
ATOM     10  H   PHE A   5     -35.837 -46.850   9.419  0.00  0.00    +0.150 HD
BRANCH   9  11
ATOM     11  CA  PHE A   5     -36.376 -45.729  11.190  0.00  0.00    +0.141 C 
BRANCH  11  12
ATOM     12  C   PHE A   5     -37.006 -44.742  10.243  0.00  0.00    +0.227 C 
ATOM     13  O   PHE A   5     -36.322 -44.139   9.409  0.00  0.00    -0.286 OA
ENDBRANCH  11  12
BRANCH  11  14
ATOM     14  CB  PHE A   5     -35.123 -45.141  11.849  0.00  0.00    +0.054 C 
BRANCH  14  15
ATOM     15  CG  PHE A   5     -35.328 -43.785  12.474  0.00  0.00    -0.020 A 
ATOM     16  CD2 PHE A   5     -36.338 -43.569  13.401  0.00  0.00    -0.004 A 
ATOM     17  CE2 PHE A   5     -36.492 -42.328  14.003  0.00  0.00    -0.000 A 
ATOM     18  CZ  PHE A   5     -35.637 -41.289  13.688  0.00  0.00    -0.000 A 
ATOM     19  CE1 PHE A   5     -34.618 -41.495  12.774  0.00  0.00    -0.000 A 
ATOM     20  CD1 PHE A   5     -34.465 -42.741  12.180  0.00  0.00    -0.004 A 
ENDBRANCH  14  15
ENDBRANCH  11  14
ENDBRANCH   9  11
ENDBRANCH   5   7
ENDBRANCH   3   5
BRANCH   1  21
ATOM     21  CA  MET A   3     -32.203 -50.193  11.727  0.00  0.00    +0.149 C 
BRANCH  21  24
ATOM     22  C   ALA A   2     -32.171 -51.982  10.074  0.00  0.00    +0.241 C 
ATOM     23  O   ALA A   2     -33.075 -52.604  10.633  0.00  0.00    -0.273 OA
ATOM     24  N   MET A   3     -31.616 -50.892  10.589  0.00  0.00    -0.297 N 
ATOM     25  H   MET A   3     -30.738 -50.526  10.169  0.00  0.00    +0.150 HD
BRANCH  22  26
ATOM     26  CA  ALA A   2     -31.598 -52.460   8.746  0.00  0.00    +0.149 C 
ATOM     27  CB  ALA A   2     -32.501 -52.050   7.590  0.00  0.00    +0.031 C 
BRANCH  26  30
ATOM     28  C   GLY A   1     -30.449 -54.450   9.476  0.00  0.00    +0.240 C 
ATOM     29  O   GLY A   1     -29.568 -53.778  10.029  0.00  0.00    -0.274 OA
ATOM     30  N   ALA A   2     -31.431 -53.903   8.779  0.00  0.00    -0.297 N 
ATOM     31  H   ALA A   2     -32.089 -54.511   8.250  0.00  0.00    +0.150 HD
BRANCH  28  32
ATOM     32  CA  GLY A   1     -30.438 -55.965   9.527  0.00  0.00    +0.169 C 
BRANCH  32  33
ATOM     33  N   GLY A   1     -29.085 -56.488   9.403  0.00  0.00    -0.236 NA
ATOM     34  H   GLY A   1     -28.702 -57.085  10.164  0.00  0.00    +0.142 HD
ENDBRANCH  32  33
ENDBRANCH  28  32
ENDBRANCH  26  30
ENDBRANCH  22  26
ENDBRANCH  21  24
BRANCH  21  35
ATOM     35  CB  MET A   3     -31.144 -49.355  12.450  0.00  0.00    +0.041 C 
BRANCH  35  36
ATOM     36  CG  MET A   3     -31.594 -48.624  13.713  0.00  0.00    +0.060 C 
BRANCH  36  37
ATOM     37  SD  MET A   3     -32.003 -49.721  15.074  0.00  0.00    -0.139 S 
ATOM     38  CE  MET A   3     -33.786 -49.809  14.905  0.00  0.00    +0.069 C 
ENDBRANCH  36  37
ENDBRANCH  35  36
ENDBRANCH  21  35
ENDBRANCH   1  21
TORSDOF 15
REMARK  Name = ../refined-set-2016/4pfu/4pfu_pocket.pdb
REMARK  196 active torsions:
REMARK  status: ('A' for Active; 'I' for Inactive)
REMARK    1  A    between atoms: _1  and  _3
REMARK    2  A    between atoms: _3  and  _4
REMARK    3  A    between atoms: _3  and  _6
REMARK    4  A    between atoms: _6  and  _7
REMARK    5  A    between atoms: _12  and  _13
REMARK    6  A    between atoms: _15  and  _17
REMARK    7  A    between atoms: _17  and  _18
REMARK    8  A    between atoms: _20  and  _22
REMARK    9  A    between atoms: _22  and  _23
REMARK   10  A    between atoms: _25  and  _27
REMARK   11  A    between atoms: _27  and  _28
REMARK   12  A    between atoms: _27  and  _30
REMARK   13  A    between atoms: _30  and  _31
REMARK   14  A    between atoms: _33  and  _35
REMARK   15  A    between atoms: _35  and  _36
REMARK   16  A    between atoms: _35  and  _38
REMARK   17  A    between atoms: _38  and  _39
REMARK   18  A    between atoms: _42  and  _44
REMARK   19  A    between atoms: _44  and  _45
REMARK   20  A    between atoms: _44  and  _47
REMARK   21  A    between atoms: _47  and  _48
REMARK   22  A    between atoms: _59  and  _60
REMARK   23  A    between atoms: _65  and  _67
REMARK   24  A    between atoms: _67  and  _68
REMARK   25  A    between atoms: _67  and  _70
REMARK   26  A    between atoms: _70  and  _71
REMARK   27  A    between atoms: _73  and  _75
REMARK   28  A    between atoms: _75  and  _76
REMARK   29  A    between atoms: _75  and  _78
REMARK   30  A    between atoms: _78  and  _79
REMARK   31  A    between atoms: _84  and  _86
REMARK   32  A    between atoms: _86  and  _87
REMARK   33  A    between atoms: _86  and  _89
REMARK   34  A    between atoms: _89  and  _90
REMARK   35  A    between atoms: _95  and  _97
REMARK   36  A    between atoms: _97  and  _98
REMARK   37  A    between atoms: _101  and  _103
REMARK   38  A    between atoms: _103  and  _104
REMARK   39  A    between atoms: _103  and  _106
REMARK   40  A    between atoms: _106  and  _107
REMARK   41  A    between atoms: _109  and  _111
REMARK   42  A    between atoms: _111  and  _112
REMARK   43  A    between atoms: _111  and  _114
REMARK   44  A    between atoms: _114  and  _115
REMARK   45  A    between atoms: _120  and  _122
REMARK   46  A    between atoms: _122  and  _123
REMARK   47  A    between atoms: _122  and  _125
REMARK   48  A    between atoms: _125  and  _126
REMARK   49  A    between atoms: _132  and  _134
REMARK   50  A    between atoms: _134  and  _135
REMARK   51  A    between atoms: _134  and  _137
REMARK   52  A    between atoms: _137  and  _138
REMARK   53  A    between atoms: _138  and  _139
REMARK   54  A    between atoms: _141  and  _143
REMARK   55  A    between atoms: _143  and  _144
REMARK   56  A    between atoms: _143  and  _146
REMARK   57  A    between atoms: _146  and  _147
REMARK   58  A    between atoms: _150  and  _152
REMARK   59  A    between atoms: _152  and  _153
REMARK   60  A    between atoms: _152  and  _155
REMARK   61  A    between atoms: _155  and  _156
REMARK   62  A    between atoms: _158  and  _160
REMARK   63  A    between atoms: _160  and  _161
REMARK   64  A    between atoms: _160  and  _163
REMARK   65  A    between atoms: _163  and  _164
REMARK   66  A    between atoms: _167  and  _169
REMARK   67  A    between atoms: _169  and  _170
REMARK   68  A    between atoms: _169  and  _172
REMARK   69  A    between atoms: _175  and  _177
REMARK   70  A    between atoms: _177  and  _178
REMARK   71  A    between atoms: _177  and  _180
REMARK   72  A    between atoms: _183  and  _185
REMARK   73  A    between atoms: _185  and  _186
REMARK   74  A    between atoms: _185  and  _188
REMARK   75  A    between atoms: _188  and  _189
REMARK   76  A    between atoms: _194  and  _195
REMARK   77  A    between atoms: _197  and  _199
REMARK   78  A    between atoms: _199  and  _200
REMARK   79  A    between atoms: _199  and  _202
REMARK   80  A    between atoms: _205  and  _207
REMARK   81  A    between atoms: _207  and  _208
REMARK   82  A    between atoms: _207  and  _210
REMARK   83  A    between atoms: _213  and  _214
REMARK   84  A    between atoms: _219  and  _221
REMARK   85  A    between atoms: _221  and  _222
REMARK   86  A    between atoms: _221  and  _224
REMARK   87  A    between atoms: _224  and  _225
REMARK   88  A    between atoms: _230  and  _231
REMARK   89  A    between atoms: _233  and  _235
REMARK   90  A    between atoms: _235  and  _236
REMARK   91  A    between atoms: _238  and  _240
REMARK   92  A    between atoms: _240  and  _241
REMARK   93  A    between atoms: _240  and  _243
REMARK   94  A    between atoms: _243  and  _244
REMARK   95  A    between atoms: _254  and  _256
REMARK   96  A    between atoms: _256  and  _257
REMARK   97  A    between atoms: _256  and  _259
REMARK   98  A    between atoms: _259  and  _260
REMARK   99  A    between atoms: _263  and  _265
REMARK  100  A    between atoms: _265  and  _266
REMARK  101  A    between atoms: _265  and  _268
REMARK  102  A    between atoms: _268  and  _269
REMARK  103  A    between atoms: _272  and  _274
REMARK  104  A    between atoms: _274  and  _275
REMARK  105  A    between atoms: _274  and  _277
REMARK  106  A    between atoms: _277  and  _278
REMARK  107  A    between atoms: _288  and  _290
REMARK  108  A    between atoms: _290  and  _291
REMARK  109  A    between atoms: _290  and  _293
REMARK  110  A    between atoms: _293  and  _294
REMARK  111  A    between atoms: _294  and  _295
REMARK  112  A    between atoms: _297  and  _299
REMARK  113  A    between atoms: _299  and  _300
REMARK  114  A    between atoms: _299  and  _302
REMARK  115  A    between atoms: _302  and  _303
REMARK  116  A    between atoms: _305  and  _307
REMARK  117  A    between atoms: _307  and  _308
REMARK  118  A    between atoms: _307  and  _310
REMARK  119  A    between atoms: _310  and  _311
REMARK  120  A    between atoms: _316  and  _317
REMARK  121  A    between atoms: _319  and  _321
REMARK  122  A    between atoms: _321  and  _322
REMARK  123  A    between atoms: _321  and  _324
REMARK  124  A    between atoms: _324  and  _325
REMARK  125  A    between atoms: _330  and  _331
REMARK  126  A    between atoms: _333  and  _335
REMARK  127  A    between atoms: _335  and  _336
REMARK  128  A    between atoms: _335  and  _338
REMARK  129  A    between atoms: _338  and  _339
REMARK  130  A    between atoms: _339  and  _340
REMARK  131  A    between atoms: _342  and  _344
REMARK  132  A    between atoms: _344  and  _345
REMARK  133  A    between atoms: _344  and  _347
REMARK  134  A    between atoms: _347  and  _348
REMARK  135  A    between atoms: _353  and  _354
REMARK  136  A    between atoms: _356  and  _358
REMARK  137  A    between atoms: _358  and  _359
REMARK  138  A    between atoms: _358  and  _361
REMARK  139  A    between atoms: _361  and  _362
REMARK  140  A    between atoms: _362  and  _363
REMARK  141  A    between atoms: _365  and  _367
REMARK  142  A    between atoms: _367  and  _368
REMARK  143  A    between atoms: _367  and  _370
REMARK  144  A    between atoms: _370  and  _371
REMARK  145  A    between atoms: _376  and  _378
REMARK  146  A    between atoms: _378  and  _379
REMARK  147  A    between atoms: _382  and  _384
REMARK  148  A    between atoms: _384  and  _385
REMARK  149  A    between atoms: _384  and  _387
REMARK  150  A    between atoms: _387  and  _388
REMARK  151  A    between atoms: _393  and  _395
REMARK  152  A    between atoms: _395  and  _396
REMARK  153  A    between atoms: _398  and  _400
REMARK  154  A    between atoms: _400  and  _401
REMARK  155  A    between atoms: _400  and  _403
REMARK  156  A    between atoms: _403  and  _404
REMARK  157  A    between atoms: _407  and  _409
REMARK  158  A    between atoms: _409  and  _410
REMARK  159  A    between atoms: _412  and  _414
REMARK  160  A    between atoms: _414  and  _415
REMARK  161  A    between atoms: _414  and  _417
REMARK  162  A    between atoms: _417  and  _418
REMARK  163  A    between atoms: _428  and  _430
REMARK  164  A    between atoms: _430  and  _431
REMARK  165  A    between atoms: _433  and  _435
REMARK  166  A    between atoms: _435  and  _436
REMARK  167  A    between atoms: _439  and  _441
REMARK  168  A    between atoms: _441  and  _442
REMARK  169  A    between atoms: _441  and  _444
REMARK  170  A    between atoms: _444  and  _445
REMARK  171  A    between atoms: _445  and  _446
REMARK  172  A    between atoms: _448  and  _450
REMARK  173  A    between atoms: _450  and  _451
REMARK  174  A    between atoms: _454  and  _456
REMARK  175  A    between atoms: _456  and  _457
REMARK  176  A    between atoms: _456  and  _459
REMARK  177  A    between atoms: _459  and  _460
REMARK  178  A    between atoms: _466  and  _468
REMARK  179  A    between atoms: _468  and  _469
REMARK  180  A    between atoms: _468  and  _471
REMARK  181  A    between atoms: _473  and  _475
REMARK  182  A    between atoms: _475  and  _476
REMARK  183  A    between atoms: _478  and  _480
REMARK  184  A    between atoms: _480  and  _481
REMARK  185  A    between atoms: _480  and  _483
REMARK  186  A    between atoms: _483  and  _484
REMARK  187  A    between atoms: _494  and  _496
REMARK  188  A    between atoms: _496  and  _497
REMARK  189  A    between atoms: _500  and  _502
REMARK  190  A    between atoms: _502  and  _503
REMARK  191  A    between atoms: _502  and  _505
REMARK  192  A    between atoms: _505  and  _506
REMARK  193  A    between atoms: _511  and  _513
REMARK  194  A    between atoms: _513  and  _514
REMARK  195  A    between atoms: _513  and  _516
REMARK  196  A    between atoms: _516  and  _517
REMARK                            x       y       z     vdW  Elec       q    Type
REMARK                         _______ _______ _______ _____ _____    ______ ____
ROOT
ATOM      1  CA  ALA A   4     -36.844 -53.263  24.505  0.00  0.00    +0.149 C 
ATOM      2  CB  ALA A   4     -37.516 -54.533  24.958  0.00  0.00    +0.031 C 
ENDROOT
BRANCH   1   4
ATOM      3  C   TRP A   3     -36.442 -52.036  22.450  0.00  0.00    +0.241 C 
ATOM      4  N   ALA A   4     -37.044 -53.044  23.077  0.00  0.00    -0.297 N 
ATOM      5  H   ALA A   4     -37.665 -53.684  22.542  0.00  0.00    +0.150 HD
ATOM      6  O   TRP A   3     -35.788 -51.171  23.037  0.00  0.00    -0.273 OA
BRANCH   3   7
ATOM      7  CA  TRP A   3     -36.562 -51.990  20.935  0.00  0.00    +0.153 C 
BRANCH   7  10
ATOM      8  C   GLY A   2     -37.297 -49.674  20.853  0.00  0.00    +0.243 C 
ATOM      9  O   GLY A   2     -38.336 -49.940  21.461  0.00  0.00    -0.273 OA
ATOM     10  N   TRP A   3     -36.411 -50.602  20.501  0.00  0.00    -0.297 N 
ATOM     11  H   TRP A   3     -35.599 -50.336  19.908  0.00  0.00    +0.150 HD
BRANCH   8  12
ATOM     12  CA  GLY A   2     -36.989 -48.244  20.439  0.00  0.00    +0.176 C 
BRANCH  12  15
ATOM     13  C   CYS A   1     -34.761 -47.775  19.593  0.00  0.00    +0.239 C 
ATOM     14  O   CYS A   1     -34.311 -47.584  20.734  0.00  0.00    -0.274 OA
ATOM     15  N   GLY A   2     -36.021 -48.140  19.364  0.00  0.00    -0.296 N 
ATOM     16  H   GLY A   2     -36.318 -48.356  18.391  0.00  0.00    +0.150 HD
BRANCH  13  17
ATOM     17  CA  CYS A   1     -33.874 -47.630  18.352  0.00  0.00    +0.156 C 
BRANCH  17  18
ATOM     18  CB  CYS A   1     -32.675 -48.574  18.478  0.00  0.00    +0.095 C 
ATOM     19  SG  CYS A   1     -33.157 -50.305  18.710  0.00  0.00    -0.080 S 
ENDBRANCH  17  18
BRANCH  17  20
ATOM     20  N   CYS A   1     -33.412 -46.267  18.099  0.00  0.00    -0.237 NA
ATOM     21  H   CYS A   1     -32.902 -45.752  18.845  0.00  0.00    +0.142 HD
ENDBRANCH  17  20
ENDBRANCH  13  17
ENDBRANCH  12  15
ENDBRANCH   8  12
ENDBRANCH   7  10
BRANCH   7  22
ATOM     22  CB  TRP A   3     -35.491 -52.893  20.323  0.00  0.00    +0.057 C 
BRANCH  22  23
ATOM     23  CG  TRP A   3     -35.337 -52.816  18.830  0.00  0.00    -0.002 A 
ATOM     24  CD2 TRP A   3     -34.235 -53.314  18.074  0.00  0.00    +0.013 A 
ATOM     25  CE3 TRP A   3     -33.049 -53.973  18.416  0.00  0.00    +0.001 A 
ATOM     26  CZ3 TRP A   3     -32.174 -54.325  17.402  0.00  0.00    +0.000 A 
ATOM     27  CH2 TRP A   3     -32.457 -54.022  16.062  0.00  0.00    +0.001 A 
ATOM     28  CZ2 TRP A   3     -33.610 -53.385  15.698  0.00  0.00    +0.017 A 
ATOM     29  CE2 TRP A   3     -34.494 -53.034  16.718  0.00  0.00    +0.056 A 
ATOM     30  NE1 TRP A   3     -35.701 -52.391  16.652  0.00  0.00    -0.352 N 
ATOM     31  HE1 TRP A   3     -36.165 -52.057  15.783  0.00  0.00    +0.166 HD
ATOM     32  CD1 TRP A   3     -36.199 -52.260  17.934  0.00  0.00    +0.068 A 
ENDBRANCH  22  23
ENDBRANCH   7  22
ENDBRANCH   3   7
ENDBRANCH   1   4
BRANCH   1  33
ATOM     33  C   ALA A   4     -35.351 -53.314  24.783  0.00  0.00    +0.241 C 
ATOM     34  N   ASN A   5     -34.951 -52.641  25.851  0.00  0.00    -0.297 N 
ATOM     35  H   ASN A   5     -35.655 -52.095  26.387  0.00  0.00    +0.150 HD
ATOM     36  O   ALA A   4     -34.577 -53.882  24.004  0.00  0.00    -0.273 OA
BRANCH  34  37
ATOM     37  CA  ASN A   5     -33.569 -52.632  26.308  0.00  0.00    +0.158 C 
BRANCH  37  38
ATOM     38  C   ASN A   5     -32.621 -51.865  25.396  0.00  0.00    +0.241 C 
ATOM     39  O   ASN A   5     -31.404 -51.962  25.560  0.00  0.00    -0.273 OA
ATOM     40  N   TRP A   6     -33.170 -51.068  24.471  0.00  0.00    -0.298 N 
ATOM     41  H   TRP A   6     -34.201 -51.067  24.338  0.00  0.00    +0.150 HD
BRANCH  40  42
ATOM     42  CA  TRP A   6     -32.332 -50.199  23.647  0.00  0.00    +0.141 C 
BRANCH  42  43
ATOM     43  C   TRP A   6     -32.585 -48.700  23.819  0.00  0.00    +0.227 C 
ATOM     44  O   TRP A   6     -31.888 -47.902  23.218  0.00  0.00    -0.286 OA
ENDBRANCH  42  43
BRANCH  42  45
ATOM     45  CB  TRP A   6     -32.486 -50.566  22.166  0.00  0.00    +0.056 C 
BRANCH  45  46
ATOM     46  CG  TRP A   6     -31.762 -51.828  21.817  0.00  0.00    -0.002 A 
ATOM     47  CD1 TRP A   6     -32.159 -53.104  22.106  0.00  0.00    +0.068 A 
ATOM     48  NE1 TRP A   6     -31.229 -54.007  21.632  0.00  0.00    -0.352 N 
ATOM     49  HE1 TRP A   6     -31.297 -55.041  21.716  0.00  0.00    +0.166 HD
ATOM     50  CE2 TRP A   6     -30.200 -53.323  21.032  0.00  0.00    +0.056 A 
ATOM     51  CZ2 TRP A   6     -29.032 -53.803  20.408  0.00  0.00    +0.017 A 
ATOM     52  CH2 TRP A   6     -28.166 -52.876  19.876  0.00  0.00    +0.001 A 
ATOM     53  CZ3 TRP A   6     -28.430 -51.502  19.953  0.00  0.00    +0.000 A 
ATOM     54  CE3 TRP A   6     -29.603 -51.020  20.578  0.00  0.00    +0.001 A 
ATOM     55  CD2 TRP A   6     -30.500 -51.944  21.128  0.00  0.00    +0.013 A 
ENDBRANCH  45  46
ENDBRANCH  42  45
ENDBRANCH  40  42
ENDBRANCH  37  38
BRANCH  37  56
ATOM     56  CB  ASN A   5     -33.085 -54.068  26.512  0.00  0.00    +0.114 C 
BRANCH  56  57
ATOM     57  CG  ASN A   5     -34.011 -54.852  27.425  0.00  0.00    +0.222 C 
ATOM     58  OD1 ASN A   5     -34.207 -54.480  28.582  0.00  0.00    -0.275 OA
ATOM     59  ND2 ASN A   5     -34.588 -55.933  26.910  0.00  0.00    -0.329 N 
ATOM     60 HD21 ASN A   5     -35.236 -56.503  27.491  0.00  0.00    +0.145 HD
ATOM     61 HD22 ASN A   5     -34.392 -56.209  25.927  0.00  0.00    +0.145 HD
ENDBRANCH  56  57
ENDBRANCH  37  56
ENDBRANCH  34  37
ENDBRANCH   1  33
TORSDOF 19
REMARK  Name = ../refined-set-2016/4pfu/4pfu_pocket.pdb
REMARK  196 active torsions:
REMARK  status: ('A' for Active; 'I' for Inactive)
REMARK    1  A    between atoms: _1  and  _3
REMARK    2  A    between atoms: _3  and  _4
REMARK    3  A    between atoms: _3  and  _6
REMARK    4  A    between atoms: _6  and  _7
REMARK    5  A    between atoms: _12  and  _13
REMARK    6  A    between atoms: _15  and  _17
REMARK    7  A    between atoms: _17  and  _18
REMARK    8  A    between atoms: _20  and  _22
REMARK    9  A    between atoms: _22  and  _23
REMARK   10  A    between atoms: _25  and  _27
REMARK   11  A    between atoms: _27  and  _28
REMARK   12  A    between atoms: _27  and  _30
REMARK   13  A    between atoms: _30  and  _31
REMARK   14  A    between atoms: _33  and  _35
REMARK   15  A    between atoms: _35  and  _36
REMARK   16  A    between atoms: _35  and  _38
REMARK   17  A    between atoms: _38  and  _39
REMARK   18  A    between atoms: _42  and  _44
REMARK   19  A    between atoms: _44  and  _45
REMARK   20  A    between atoms: _44  and  _47
REMARK   21  A    between atoms: _47  and  _48
REMARK   22  A    between atoms: _59  and  _60
REMARK   23  A    between atoms: _65  and  _67
REMARK   24  A    between atoms: _67  and  _68
REMARK   25  A    between atoms: _67  and  _70
REMARK   26  A    between atoms: _70  and  _71
REMARK   27  A    between atoms: _73  and  _75
REMARK   28  A    between atoms: _75  and  _76
REMARK   29  A    between atoms: _75  and  _78
REMARK   30  A    between atoms: _78  and  _79
REMARK   31  A    between atoms: _84  and  _86
REMARK   32  A    between atoms: _86  and  _87
REMARK   33  A    between atoms: _86  and  _89
REMARK   34  A    between atoms: _89  and  _90
REMARK   35  A    between atoms: _95  and  _97
REMARK   36  A    between atoms: _97  and  _98
REMARK   37  A    between atoms: _101  and  _103
REMARK   38  A    between atoms: _103  and  _104
REMARK   39  A    between atoms: _103  and  _106
REMARK   40  A    between atoms: _106  and  _107
REMARK   41  A    between atoms: _109  and  _111
REMARK   42  A    between atoms: _111  and  _112
REMARK   43  A    between atoms: _111  and  _114
REMARK   44  A    between atoms: _114  and  _115
REMARK   45  A    between atoms: _120  and  _122
REMARK   46  A    between atoms: _122  and  _123
REMARK   47  A    between atoms: _122  and  _125
REMARK   48  A    between atoms: _125  and  _126
REMARK   49  A    between atoms: _132  and  _134
REMARK   50  A    between atoms: _134  and  _135
REMARK   51  A    between atoms: _134  and  _137
REMARK   52  A    between atoms: _137  and  _138
REMARK   53  A    between atoms: _138  and  _139
REMARK   54  A    between atoms: _141  and  _143
REMARK   55  A    between atoms: _143  and  _144
REMARK   56  A    between atoms: _143  and  _146
REMARK   57  A    between atoms: _146  and  _147
REMARK   58  A    between atoms: _150  and  _152
REMARK   59  A    between atoms: _152  and  _153
REMARK   60  A    between atoms: _152  and  _155
REMARK   61  A    between atoms: _155  and  _156
REMARK   62  A    between atoms: _158  and  _160
REMARK   63  A    between atoms: _160  and  _161
REMARK   64  A    between atoms: _160  and  _163
REMARK   65  A    between atoms: _163  and  _164
REMARK   66  A    between atoms: _167  and  _169
REMARK   67  A    between atoms: _169  and  _170
REMARK   68  A    between atoms: _169  and  _172
REMARK   69  A    between atoms: _175  and  _177
REMARK   70  A    between atoms: _177  and  _178
REMARK   71  A    between atoms: _177  and  _180
REMARK   72  A    between atoms: _183  and  _185
REMARK   73  A    between atoms: _185  and  _186
REMARK   74  A    between atoms: _185  and  _188
REMARK   75  A    between atoms: _188  and  _189
REMARK   76  A    between atoms: _194  and  _195
REMARK   77  A    between atoms: _197  and  _199
REMARK   78  A    between atoms: _199  and  _200
REMARK   79  A    between atoms: _199  and  _202
REMARK   80  A    between atoms: _205  and  _207
REMARK   81  A    between atoms: _207  and  _208
REMARK   82  A    between atoms: _207  and  _210
REMARK   83  A    between atoms: _213  and  _214
REMARK   84  A    between atoms: _219  and  _221
REMARK   85  A    between atoms: _221  and  _222
REMARK   86  A    between atoms: _221  and  _224
REMARK   87  A    between atoms: _224  and  _225
REMARK   88  A    between atoms: _230  and  _231
REMARK   89  A    between atoms: _233  and  _235
REMARK   90  A    between atoms: _235  and  _236
REMARK   91  A    between atoms: _238  and  _240
REMARK   92  A    between atoms: _240  and  _241
REMARK   93  A    between atoms: _240  and  _243
REMARK   94  A    between atoms: _243  and  _244
REMARK   95  A    between atoms: _254  and  _256
REMARK   96  A    between atoms: _256  and  _257
REMARK   97  A    between atoms: _256  and  _259
REMARK   98  A    between atoms: _259  and  _260
REMARK   99  A    between atoms: _263  and  _265
REMARK  100  A    between atoms: _265  and  _266
REMARK  101  A    between atoms: _265  and  _268
REMARK  102  A    between atoms: _268  and  _269
REMARK  103  A    between atoms: _272  and  _274
REMARK  104  A    between atoms: _274  and  _275
REMARK  105  A    between atoms: _274  and  _277
REMARK  106  A    between atoms: _277  and  _278
REMARK  107  A    between atoms: _288  and  _290
REMARK  108  A    between atoms: _290  and  _291
REMARK  109  A    between atoms: _290  and  _293
REMARK  110  A    between atoms: _293  and  _294
REMARK  111  A    between atoms: _294  and  _295
REMARK  112  A    between atoms: _297  and  _299
REMARK  113  A    between atoms: _299  and  _300
REMARK  114  A    between atoms: _299  and  _302
REMARK  115  A    between atoms: _302  and  _303
REMARK  116  A    between atoms: _305  and  _307
REMARK  117  A    between atoms: _307  and  _308
REMARK  118  A    between atoms: _307  and  _310
REMARK  119  A    between atoms: _310  and  _311
REMARK  120  A    between atoms: _316  and  _317
REMARK  121  A    between atoms: _319  and  _321
REMARK  122  A    between atoms: _321  and  _322
REMARK  123  A    between atoms: _321  and  _324
REMARK  124  A    between atoms: _324  and  _325
REMARK  125  A    between atoms: _330  and  _331
REMARK  126  A    between atoms: _333  and  _335
REMARK  127  A    between atoms: _335  and  _336
REMARK  128  A    between atoms: _335  and  _338
REMARK  129  A    between atoms: _338  and  _339
REMARK  130  A    between atoms: _339  and  _340
REMARK  131  A    between atoms: _342  and  _344
REMARK  132  A    between atoms: _344  and  _345
REMARK  133  A    between atoms: _344  and  _347
REMARK  134  A    between atoms: _347  and  _348
REMARK  135  A    between atoms: _353  and  _354
REMARK  136  A    between atoms: _356  and  _358
REMARK  137  A    between atoms: _358  and  _359
REMARK  138  A    between atoms: _358  and  _361
REMARK  139  A    between atoms: _361  and  _362
REMARK  140  A    between atoms: _362  and  _363
REMARK  141  A    between atoms: _365  and  _367
REMARK  142  A    between atoms: _367  and  _368
REMARK  143  A    between atoms: _367  and  _370
REMARK  144  A    between atoms: _370  and  _371
REMARK  145  A    between atoms: _376  and  _378
REMARK  146  A    between atoms: _378  and  _379
REMARK  147  A    between atoms: _382  and  _384
REMARK  148  A    between atoms: _384  and  _385
REMARK  149  A    between atoms: _384  and  _387
REMARK  150  A    between atoms: _387  and  _388
REMARK  151  A    between atoms: _393  and  _395
REMARK  152  A    between atoms: _395  and  _396
REMARK  153  A    between atoms: _398  and  _400
REMARK  154  A    between atoms: _400  and  _401
REMARK  155  A    between atoms: _400  and  _403
REMARK  156  A    between atoms: _403  and  _404
REMARK  157  A    between atoms: _407  and  _409
REMARK  158  A    between atoms: _409  and  _410
REMARK  159  A    between atoms: _412  and  _414
REMARK  160  A    between atoms: _414  and  _415
REMARK  161  A    between atoms: _414  and  _417
REMARK  162  A    between atoms: _417  and  _418
REMARK  163  A    between atoms: _428  and  _430
REMARK  164  A    between atoms: _430  and  _431
REMARK  165  A    between atoms: _433  and  _435
REMARK  166  A    between atoms: _435  and  _436
REMARK  167  A    between atoms: _439  and  _441
REMARK  168  A    between atoms: _441  and  _442
REMARK  169  A    between atoms: _441  and  _444
REMARK  170  A    between atoms: _444  and  _445
REMARK  171  A    between atoms: _445  and  _446
REMARK  172  A    between atoms: _448  and  _450
REMARK  173  A    between atoms: _450  and  _451
REMARK  174  A    between atoms: _454  and  _456
REMARK  175  A    between atoms: _456  and  _457
REMARK  176  A    between atoms: _456  and  _459
REMARK  177  A    between atoms: _459  and  _460
REMARK  178  A    between atoms: _466  and  _468
REMARK  179  A    between atoms: _468  and  _469
REMARK  180  A    between atoms: _468  and  _471
REMARK  181  A    between atoms: _473  and  _475
REMARK  182  A    between atoms: _475  and  _476
REMARK  183  A    between atoms: _478  and  _480
REMARK  184  A    between atoms: _480  and  _481
REMARK  185  A    between atoms: _480  and  _483
REMARK  186  A    between atoms: _483  and  _484
REMARK  187  A    between atoms: _494  and  _496
REMARK  188  A    between atoms: _496  and  _497
REMARK  189  A    between atoms: _500  and  _502
REMARK  190  A    between atoms: _502  and  _503
REMARK  191  A    between atoms: _502  and  _505
REMARK  192  A    between atoms: _505  and  _506
REMARK  193  A    between atoms: _511  and  _513
REMARK  194  A    between atoms: _513  and  _514
REMARK  195  A    between atoms: _513  and  _516
REMARK  196  A    between atoms: _516  and  _517
REMARK                            x       y       z     vdW  Elec       q    Type
REMARK                         _______ _______ _______ _____ _____    ______ ____
ROOT
ATOM      1  O   HOH     1     -35.502 -60.804  18.252  0.00  0.00    +0.000 OA
ENDROOT
TORSDOF 0
REMARK  Name = ../refined-set-2016/4pfu/4pfu_pocket.pdb
REMARK  196 active torsions:
REMARK  status: ('A' for Active; 'I' for Inactive)
REMARK    1  A    between atoms: _1  and  _3
REMARK    2  A    between atoms: _3  and  _4
REMARK    3  A    between atoms: _3  and  _6
REMARK    4  A    between atoms: _6  and  _7
REMARK    5  A    between atoms: _12  and  _13
REMARK    6  A    between atoms: _15  and  _17
REMARK    7  A    between atoms: _17  and  _18
REMARK    8  A    between atoms: _20  and  _22
REMARK    9  A    between atoms: _22  and  _23
REMARK   10  A    between atoms: _25  and  _27
REMARK   11  A    between atoms: _27  and  _28
REMARK   12  A    between atoms: _27  and  _30
REMARK   13  A    between atoms: _30  and  _31
REMARK   14  A    between atoms: _33  and  _35
REMARK   15  A    between atoms: _35  and  _36
REMARK   16  A    between atoms: _35  and  _38
REMARK   17  A    between atoms: _38  and  _39
REMARK   18  A    between atoms: _42  and  _44
REMARK   19  A    between atoms: _44  and  _45
REMARK   20  A    between atoms: _44  and  _47
REMARK   21  A    between atoms: _47  and  _48
REMARK   22  A    between atoms: _59  and  _60
REMARK   23  A    between atoms: _65  and  _67
REMARK   24  A    between atoms: _67  and  _68
REMARK   25  A    between atoms: _67  and  _70
REMARK   26  A    between atoms: _70  and  _71
REMARK   27  A    between atoms: _73  and  _75
REMARK   28  A    between atoms: _75  and  _76
REMARK   29  A    between atoms: _75  and  _78
REMARK   30  A    between atoms: _78  and  _79
REMARK   31  A    between atoms: _84  and  _86
REMARK   32  A    between atoms: _86  and  _87
REMARK   33  A    between atoms: _86  and  _89
REMARK   34  A    between atoms: _89  and  _90
REMARK   35  A    between atoms: _95  and  _97
REMARK   36  A    between atoms: _97  and  _98
REMARK   37  A    between atoms: _101  and  _103
REMARK   38  A    between atoms: _103  and  _104
REMARK   39  A    between atoms: _103  and  _106
REMARK   40  A    between atoms: _106  and  _107
REMARK   41  A    between atoms: _109  and  _111
REMARK   42  A    between atoms: _111  and  _112
REMARK   43  A    between atoms: _111  and  _114
REMARK   44  A    between atoms: _114  and  _115
REMARK   45  A    between atoms: _120  and  _122
REMARK   46  A    between atoms: _122  and  _123
REMARK   47  A    between atoms: _122  and  _125
REMARK   48  A    between atoms: _125  and  _126
REMARK   49  A    between atoms: _132  and  _134
REMARK   50  A    between atoms: _134  and  _135
REMARK   51  A    between atoms: _134  and  _137
REMARK   52  A    between atoms: _137  and  _138
REMARK   53  A    between atoms: _138  and  _139
REMARK   54  A    between atoms: _141  and  _143
REMARK   55  A    between atoms: _143  and  _144
REMARK   56  A    between atoms: _143  and  _146
REMARK   57  A    between atoms: _146  and  _147
REMARK   58  A    between atoms: _150  and  _152
REMARK   59  A    between atoms: _152  and  _153
REMARK   60  A    between atoms: _152  and  _155
REMARK   61  A    between atoms: _155  and  _156
REMARK   62  A    between atoms: _158  and  _160
REMARK   63  A    between atoms: _160  and  _161
REMARK   64  A    between atoms: _160  and  _163
REMARK   65  A    between atoms: _163  and  _164
REMARK   66  A    between atoms: _167  and  _169
REMARK   67  A    between atoms: _169  and  _170
REMARK   68  A    between atoms: _169  and  _172
REMARK   69  A    between atoms: _175  and  _177
REMARK   70  A    between atoms: _177  and  _178
REMARK   71  A    between atoms: _177  and  _180
REMARK   72  A    between atoms: _183  and  _185
REMARK   73  A    between atoms: _185  and  _186
REMARK   74  A    between atoms: _185  and  _188
REMARK   75  A    between atoms: _188  and  _189
REMARK   76  A    between atoms: _194  and  _195
REMARK   77  A    between atoms: _197  and  _199
REMARK   78  A    between atoms: _199  and  _200
REMARK   79  A    between atoms: _199  and  _202
REMARK   80  A    between atoms: _205  and  _207
REMARK   81  A    between atoms: _207  and  _208
REMARK   82  A    between atoms: _207  and  _210
REMARK   83  A    between atoms: _213  and  _214
REMARK   84  A    between atoms: _219  and  _221
REMARK   85  A    between atoms: _221  and  _222
REMARK   86  A    between atoms: _221  and  _224
REMARK   87  A    between atoms: _224  and  _225
REMARK   88  A    between atoms: _230  and  _231
REMARK   89  A    between atoms: _233  and  _235
REMARK   90  A    between atoms: _235  and  _236
REMARK   91  A    between atoms: _238  and  _240
REMARK   92  A    between atoms: _240  and  _241
REMARK   93  A    between atoms: _240  and  _243
REMARK   94  A    between atoms: _243  and  _244
REMARK   95  A    between atoms: _254  and  _256
REMARK   96  A    between atoms: _256  and  _257
REMARK   97  A    between atoms: _256  and  _259
REMARK   98  A    between atoms: _259  and  _260
REMARK   99  A    between atoms: _263  and  _265
REMARK  100  A    between atoms: _265  and  _266
REMARK  101  A    between atoms: _265  and  _268
REMARK  102  A    between atoms: _268  and  _269
REMARK  103  A    between atoms: _272  and  _274
REMARK  104  A    between atoms: _274  and  _275
REMARK  105  A    between atoms: _274  and  _277
REMARK  106  A    between atoms: _277  and  _278
REMARK  107  A    between atoms: _288  and  _290
REMARK  108  A    between atoms: _290  and  _291
REMARK  109  A    between atoms: _290  and  _293
REMARK  110  A    between atoms: _293  and  _294
REMARK  111  A    between atoms: _294  and  _295
REMARK  112  A    between atoms: _297  and  _299
REMARK  113  A    between atoms: _299  and  _300
REMARK  114  A    between atoms: _299  and  _302
REMARK  115  A    between atoms: _302  and  _303
REMARK  116  A    between atoms: _305  and  _307
REMARK  117  A    between atoms: _307  and  _308
REMARK  118  A    between atoms: _307  and  _310
REMARK  119  A    between atoms: _310  and  _311
REMARK  120  A    between atoms: _316  and  _317
REMARK  121  A    between atoms: _319  and  _321
REMARK  122  A    between atoms: _321  and  _322
REMARK  123  A    between atoms: _321  and  _324
REMARK  124  A    between atoms: _324  and  _325
REMARK  125  A    between atoms: _330  and  _331
REMARK  126  A    between atoms: _333  and  _335
REMARK  127  A    between atoms: _335  and  _336
REMARK  128  A    between atoms: _335  and  _338
REMARK  129  A    between atoms: _338  and  _339
REMARK  130  A    between atoms: _339  and  _340
REMARK  131  A    between atoms: _342  and  _344
REMARK  132  A    between atoms: _344  and  _345
REMARK  133  A    between atoms: _344  and  _347
REMARK  134  A    between atoms: _347  and  _348
REMARK  135  A    between atoms: _353  and  _354
REMARK  136  A    between atoms: _356  and  _358
REMARK  137  A    between atoms: _358  and  _359
REMARK  138  A    between atoms: _358  and  _361
REMARK  139  A    between atoms: _361  and  _362
REMARK  140  A    between atoms: _362  and  _363
REMARK  141  A    between atoms: _365  and  _367
REMARK  142  A    between atoms: _367  and  _368
REMARK  143  A    between atoms: _367  and  _370
REMARK  144  A    between atoms: _370  and  _371
REMARK  145  A    between atoms: _376  and  _378
REMARK  146  A    between atoms: _378  and  _379
REMARK  147  A    between atoms: _382  and  _384
REMARK  148  A    between atoms: _384  and  _385
REMARK  149  A    between atoms: _384  and  _387
REMARK  150  A    between atoms: _387  and  _388
REMARK  151  A    between atoms: _393  and  _395
REMARK  152  A    between atoms: _395  and  _396
REMARK  153  A    between atoms: _398  and  _400
REMARK  154  A    between atoms: _400  and  _401
REMARK  155  A    between atoms: _400  and  _403
REMARK  156  A    between atoms: _403  and  _404
REMARK  157  A    between atoms: _407  and  _409
REMARK  158  A    between atoms: _409  and  _410
REMARK  159  A    between atoms: _412  and  _414
REMARK  160  A    between atoms: _414  and  _415
REMARK  161  A    between atoms: _414  and  _417
REMARK  162  A    between atoms: _417  and  _418
REMARK  163  A    between atoms: _428  and  _430
REMARK  164  A    between atoms: _430  and  _431
REMARK  165  A    between atoms: _433  and  _435
REMARK  166  A    between atoms: _435  and  _436
REMARK  167  A    between atoms: _439  and  _441
REMARK  168  A    between atoms: _441  and  _442
REMARK  169  A    between atoms: _441  and  _444
REMARK  170  A    between atoms: _444  and  _445
REMARK  171  A    between atoms: _445  and  _446
REMARK  172  A    between atoms: _448  and  _450
REMARK  173  A    between atoms: _450  and  _451
REMARK  174  A    between atoms: _454  and  _456
REMARK  175  A    between atoms: _456  and  _457
REMARK  176  A    between atoms: _456  and  _459
REMARK  177  A    between atoms: _459  and  _460
REMARK  178  A    between atoms: _466  and  _468
REMARK  179  A    between atoms: _468  and  _469
REMARK  180  A    between atoms: _468  and  _471
REMARK  181  A    between atoms: _473  and  _475
REMARK  182  A    between atoms: _475  and  _476
REMARK  183  A    between atoms: _478  and  _480
REMARK  184  A    between atoms: _480  and  _481
REMARK  185  A    between atoms: _480  and  _483
REMARK  186  A    between atoms: _483  and  _484
REMARK  187  A    between atoms: _494  and  _496
REMARK  188  A    between atoms: _496  and  _497
REMARK  189  A    between atoms: _500  and  _502
REMARK  190  A    between atoms: _502  and  _503
REMARK  191  A    between atoms: _502  and  _505
REMARK  192  A    between atoms: _505  and  _506
REMARK  193  A    between atoms: _511  and  _513
REMARK  194  A    between atoms: _513  and  _514
REMARK  195  A    between atoms: _513  and  _516
REMARK  196  A    between atoms: _516  and  _517
REMARK                            x       y       z     vdW  Elec       q    Type
REMARK                         _______ _______ _______ _____ _____    ______ ____
ROOT
ATOM      1  O   HOH     1     -32.900 -57.188  12.375  0.00  0.00    +0.000 OA
ENDROOT
TORSDOF 0
REMARK  Name = ../refined-set-2016/4pfu/4pfu_pocket.pdb
REMARK  196 active torsions:
REMARK  status: ('A' for Active; 'I' for Inactive)
REMARK    1  A    between atoms: _1  and  _3
REMARK    2  A    between atoms: _3  and  _4
REMARK    3  A    between atoms: _3  and  _6
REMARK    4  A    between atoms: _6  and  _7
REMARK    5  A    between atoms: _12  and  _13
REMARK    6  A    between atoms: _15  and  _17
REMARK    7  A    between atoms: _17  and  _18
REMARK    8  A    between atoms: _20  and  _22
REMARK    9  A    between atoms: _22  and  _23
REMARK   10  A    between atoms: _25  and  _27
REMARK   11  A    between atoms: _27  and  _28
REMARK   12  A    between atoms: _27  and  _30
REMARK   13  A    between atoms: _30  and  _31
REMARK   14  A    between atoms: _33  and  _35
REMARK   15  A    between atoms: _35  and  _36
REMARK   16  A    between atoms: _35  and  _38
REMARK   17  A    between atoms: _38  and  _39
REMARK   18  A    between atoms: _42  and  _44
REMARK   19  A    between atoms: _44  and  _45
REMARK   20  A    between atoms: _44  and  _47
REMARK   21  A    between atoms: _47  and  _48
REMARK   22  A    between atoms: _59  and  _60
REMARK   23  A    between atoms: _65  and  _67
REMARK   24  A    between atoms: _67  and  _68
REMARK   25  A    between atoms: _67  and  _70
REMARK   26  A    between atoms: _70  and  _71
REMARK   27  A    between atoms: _73  and  _75
REMARK   28  A    between atoms: _75  and  _76
REMARK   29  A    between atoms: _75  and  _78
REMARK   30  A    between atoms: _78  and  _79
REMARK   31  A    between atoms: _84  and  _86
REMARK   32  A    between atoms: _86  and  _87
REMARK   33  A    between atoms: _86  and  _89
REMARK   34  A    between atoms: _89  and  _90
REMARK   35  A    between atoms: _95  and  _97
REMARK   36  A    between atoms: _97  and  _98
REMARK   37  A    between atoms: _101  and  _103
REMARK   38  A    between atoms: _103  and  _104
REMARK   39  A    between atoms: _103  and  _106
REMARK   40  A    between atoms: _106  and  _107
REMARK   41  A    between atoms: _109  and  _111
REMARK   42  A    between atoms: _111  and  _112
REMARK   43  A    between atoms: _111  and  _114
REMARK   44  A    between atoms: _114  and  _115
REMARK   45  A    between atoms: _120  and  _122
REMARK   46  A    between atoms: _122  and  _123
REMARK   47  A    between atoms: _122  and  _125
REMARK   48  A    between atoms: _125  and  _126
REMARK   49  A    between atoms: _132  and  _134
REMARK   50  A    between atoms: _134  and  _135
REMARK   51  A    between atoms: _134  and  _137
REMARK   52  A    between atoms: _137  and  _138
REMARK   53  A    between atoms: _138  and  _139
REMARK   54  A    between atoms: _141  and  _143
REMARK   55  A    between atoms: _143  and  _144
REMARK   56  A    between atoms: _143  and  _146
REMARK   57  A    between atoms: _146  and  _147
REMARK   58  A    between atoms: _150  and  _152
REMARK   59  A    between atoms: _152  and  _153
REMARK   60  A    between atoms: _152  and  _155
REMARK   61  A    between atoms: _155  and  _156
REMARK   62  A    between atoms: _158  and  _160
REMARK   63  A    between atoms: _160  and  _161
REMARK   64  A    between atoms: _160  and  _163
REMARK   65  A    between atoms: _163  and  _164
REMARK   66  A    between atoms: _167  and  _169
REMARK   67  A    between atoms: _169  and  _170
REMARK   68  A    between atoms: _169  and  _172
REMARK   69  A    between atoms: _175  and  _177
REMARK   70  A    between atoms: _177  and  _178
REMARK   71  A    between atoms: _177  and  _180
REMARK   72  A    between atoms: _183  and  _185
REMARK   73  A    between atoms: _185  and  _186
REMARK   74  A    between atoms: _185  and  _188
REMARK   75  A    between atoms: _188  and  _189
REMARK   76  A    between atoms: _194  and  _195
REMARK   77  A    between atoms: _197  and  _199
REMARK   78  A    between atoms: _199  and  _200
REMARK   79  A    between atoms: _199  and  _202
REMARK   80  A    between atoms: _205  and  _207
REMARK   81  A    between atoms: _207  and  _208
REMARK   82  A    between atoms: _207  and  _210
REMARK   83  A    between atoms: _213  and  _214
REMARK   84  A    between atoms: _219  and  _221
REMARK   85  A    between atoms: _221  and  _222
REMARK   86  A    between atoms: _221  and  _224
REMARK   87  A    between atoms: _224  and  _225
REMARK   88  A    between atoms: _230  and  _231
REMARK   89  A    between atoms: _233  and  _235
REMARK   90  A    between atoms: _235  and  _236
REMARK   91  A    between atoms: _238  and  _240
REMARK   92  A    between atoms: _240  and  _241
REMARK   93  A    between atoms: _240  and  _243
REMARK   94  A    between atoms: _243  and  _244
REMARK   95  A    between atoms: _254  and  _256
REMARK   96  A    between atoms: _256  and  _257
REMARK   97  A    between atoms: _256  and  _259
REMARK   98  A    between atoms: _259  and  _260
REMARK   99  A    between atoms: _263  and  _265
REMARK  100  A    between atoms: _265  and  _266
REMARK  101  A    between atoms: _265  and  _268
REMARK  102  A    between atoms: _268  and  _269
REMARK  103  A    between atoms: _272  and  _274
REMARK  104  A    between atoms: _274  and  _275
REMARK  105  A    between atoms: _274  and  _277
REMARK  106  A    between atoms: _277  and  _278
REMARK  107  A    between atoms: _288  and  _290
REMARK  108  A    between atoms: _290  and  _291
REMARK  109  A    between atoms: _290  and  _293
REMARK  110  A    between atoms: _293  and  _294
REMARK  111  A    between atoms: _294  and  _295
REMARK  112  A    between atoms: _297  and  _299
REMARK  113  A    between atoms: _299  and  _300
REMARK  114  A    between atoms: _299  and  _302
REMARK  115  A    between atoms: _302  and  _303
REMARK  116  A    between atoms: _305  and  _307
REMARK  117  A    between atoms: _307  and  _308
REMARK  118  A    between atoms: _307  and  _310
REMARK  119  A    between atoms: _310  and  _311
REMARK  120  A    between atoms: _316  and  _317
REMARK  121  A    between atoms: _319  and  _321
REMARK  122  A    between atoms: _321  and  _322
REMARK  123  A    between atoms: _321  and  _324
REMARK  124  A    between atoms: _324  and  _325
REMARK  125  A    between atoms: _330  and  _331
REMARK  126  A    between atoms: _333  and  _335
REMARK  127  A    between atoms: _335  and  _336
REMARK  128  A    between atoms: _335  and  _338
REMARK  129  A    between atoms: _338  and  _339
REMARK  130  A    between atoms: _339  and  _340
REMARK  131  A    between atoms: _342  and  _344
REMARK  132  A    between atoms: _344  and  _345
REMARK  133  A    between atoms: _344  and  _347
REMARK  134  A    between atoms: _347  and  _348
REMARK  135  A    between atoms: _353  and  _354
REMARK  136  A    between atoms: _356  and  _358
REMARK  137  A    between atoms: _358  and  _359
REMARK  138  A    between atoms: _358  and  _361
REMARK  139  A    between atoms: _361  and  _362
REMARK  140  A    between atoms: _362  and  _363
REMARK  141  A    between atoms: _365  and  _367
REMARK  142  A    between atoms: _367  and  _368
REMARK  143  A    between atoms: _367  and  _370
REMARK  144  A    between atoms: _370  and  _371
REMARK  145  A    between atoms: _376  and  _378
REMARK  146  A    between atoms: _378  and  _379
REMARK  147  A    between atoms: _382  and  _384
REMARK  148  A    between atoms: _384  and  _385
REMARK  149  A    between atoms: _384  and  _387
REMARK  150  A    between atoms: _387  and  _388
REMARK  151  A    between atoms: _393  and  _395
REMARK  152  A    between atoms: _395  and  _396
REMARK  153  A    between atoms: _398  and  _400
REMARK  154  A    between atoms: _400  and  _401
REMARK  155  A    between atoms: _400  and  _403
REMARK  156  A    between atoms: _403  and  _404
REMARK  157  A    between atoms: _407  and  _409
REMARK  158  A    between atoms: _409  and  _410
REMARK  159  A    between atoms: _412  and  _414
REMARK  160  A    between atoms: _414  and  _415
REMARK  161  A    between atoms: _414  and  _417
REMARK  162  A    between atoms: _417  and  _418
REMARK  163  A    between atoms: _428  and  _430
REMARK  164  A    between atoms: _430  and  _431
REMARK  165  A    between atoms: _433  and  _435
REMARK  166  A    between atoms: _435  and  _436
REMARK  167  A    between atoms: _439  and  _441
REMARK  168  A    between atoms: _441  and  _442
REMARK  169  A    between atoms: _441  and  _444
REMARK  170  A    between atoms: _444  and  _445
REMARK  171  A    between atoms: _445  and  _446
REMARK  172  A    between atoms: _448  and  _450
REMARK  173  A    between atoms: _450  and  _451
REMARK  174  A    between atoms: _454  and  _456
REMARK  175  A    between atoms: _456  and  _457
REMARK  176  A    between atoms: _456  and  _459
REMARK  177  A    between atoms: _459  and  _460
REMARK  178  A    between atoms: _466  and  _468
REMARK  179  A    between atoms: _468  and  _469
REMARK  180  A    between atoms: _468  and  _471
REMARK  181  A    between atoms: _473  and  _475
REMARK  182  A    between atoms: _475  and  _476
REMARK  183  A    between atoms: _478  and  _480
REMARK  184  A    between atoms: _480  and  _481
REMARK  185  A    between atoms: _480  and  _483
REMARK  186  A    between atoms: _483  and  _484
REMARK  187  A    between atoms: _494  and  _496
REMARK  188  A    between atoms: _496  and  _497
REMARK  189  A    between atoms: _500  and  _502
REMARK  190  A    between atoms: _502  and  _503
REMARK  191  A    between atoms: _502  and  _505
REMARK  192  A    between atoms: _505  and  _506
REMARK  193  A    between atoms: _511  and  _513
REMARK  194  A    between atoms: _513  and  _514
REMARK  195  A    between atoms: _513  and  _516
REMARK  196  A    between atoms: _516  and  _517
REMARK                            x       y       z     vdW  Elec       q    Type
REMARK                         _______ _______ _______ _____ _____    ______ ____
ROOT
ATOM      1  O   HOH     1     -43.402 -60.994  21.683  0.00  0.00    +0.000 OA
ENDROOT
TORSDOF 0
REMARK  Name = ../refined-set-2016/4pfu/4pfu_pocket.pdb
REMARK  196 active torsions:
REMARK  status: ('A' for Active; 'I' for Inactive)
REMARK    1  A    between atoms: _1  and  _3
REMARK    2  A    between atoms: _3  and  _4
REMARK    3  A    between atoms: _3  and  _6
REMARK    4  A    between atoms: _6  and  _7
REMARK    5  A    between atoms: _12  and  _13
REMARK    6  A    between atoms: _15  and  _17
REMARK    7  A    between atoms: _17  and  _18
REMARK    8  A    between atoms: _20  and  _22
REMARK    9  A    between atoms: _22  and  _23
REMARK   10  A    between atoms: _25  and  _27
REMARK   11  A    between atoms: _27  and  _28
REMARK   12  A    between atoms: _27  and  _30
REMARK   13  A    between atoms: _30  and  _31
REMARK   14  A    between atoms: _33  and  _35
REMARK   15  A    between atoms: _35  and  _36
REMARK   16  A    between atoms: _35  and  _38
REMARK   17  A    between atoms: _38  and  _39
REMARK   18  A    between atoms: _42  and  _44
REMARK   19  A    between atoms: _44  and  _45
REMARK   20  A    between atoms: _44  and  _47
REMARK   21  A    between atoms: _47  and  _48
REMARK   22  A    between atoms: _59  and  _60
REMARK   23  A    between atoms: _65  and  _67
REMARK   24  A    between atoms: _67  and  _68
REMARK   25  A    between atoms: _67  and  _70
REMARK   26  A    between atoms: _70  and  _71
REMARK   27  A    between atoms: _73  and  _75
REMARK   28  A    between atoms: _75  and  _76
REMARK   29  A    between atoms: _75  and  _78
REMARK   30  A    between atoms: _78  and  _79
REMARK   31  A    between atoms: _84  and  _86
REMARK   32  A    between atoms: _86  and  _87
REMARK   33  A    between atoms: _86  and  _89
REMARK   34  A    between atoms: _89  and  _90
REMARK   35  A    between atoms: _95  and  _97
REMARK   36  A    between atoms: _97  and  _98
REMARK   37  A    between atoms: _101  and  _103
REMARK   38  A    between atoms: _103  and  _104
REMARK   39  A    between atoms: _103  and  _106
REMARK   40  A    between atoms: _106  and  _107
REMARK   41  A    between atoms: _109  and  _111
REMARK   42  A    between atoms: _111  and  _112
REMARK   43  A    between atoms: _111  and  _114
REMARK   44  A    between atoms: _114  and  _115
REMARK   45  A    between atoms: _120  and  _122
REMARK   46  A    between atoms: _122  and  _123
REMARK   47  A    between atoms: _122  and  _125
REMARK   48  A    between atoms: _125  and  _126
REMARK   49  A    between atoms: _132  and  _134
REMARK   50  A    between atoms: _134  and  _135
REMARK   51  A    between atoms: _134  and  _137
REMARK   52  A    between atoms: _137  and  _138
REMARK   53  A    between atoms: _138  and  _139
REMARK   54  A    between atoms: _141  and  _143
REMARK   55  A    between atoms: _143  and  _144
REMARK   56  A    between atoms: _143  and  _146
REMARK   57  A    between atoms: _146  and  _147
REMARK   58  A    between atoms: _150  and  _152
REMARK   59  A    between atoms: _152  and  _153
REMARK   60  A    between atoms: _152  and  _155
REMARK   61  A    between atoms: _155  and  _156
REMARK   62  A    between atoms: _158  and  _160
REMARK   63  A    between atoms: _160  and  _161
REMARK   64  A    between atoms: _160  and  _163
REMARK   65  A    between atoms: _163  and  _164
REMARK   66  A    between atoms: _167  and  _169
REMARK   67  A    between atoms: _169  and  _170
REMARK   68  A    between atoms: _169  and  _172
REMARK   69  A    between atoms: _175  and  _177
REMARK   70  A    between atoms: _177  and  _178
REMARK   71  A    between atoms: _177  and  _180
REMARK   72  A    between atoms: _183  and  _185
REMARK   73  A    between atoms: _185  and  _186
REMARK   74  A    between atoms: _185  and  _188
REMARK   75  A    between atoms: _188  and  _189
REMARK   76  A    between atoms: _194  and  _195
REMARK   77  A    between atoms: _197  and  _199
REMARK   78  A    between atoms: _199  and  _200
REMARK   79  A    between atoms: _199  and  _202
REMARK   80  A    between atoms: _205  and  _207
REMARK   81  A    between atoms: _207  and  _208
REMARK   82  A    between atoms: _207  and  _210
REMARK   83  A    between atoms: _213  and  _214
REMARK   84  A    between atoms: _219  and  _221
REMARK   85  A    between atoms: _221  and  _222
REMARK   86  A    between atoms: _221  and  _224
REMARK   87  A    between atoms: _224  and  _225
REMARK   88  A    between atoms: _230  and  _231
REMARK   89  A    between atoms: _233  and  _235
REMARK   90  A    between atoms: _235  and  _236
REMARK   91  A    between atoms: _238  and  _240
REMARK   92  A    between atoms: _240  and  _241
REMARK   93  A    between atoms: _240  and  _243
REMARK   94  A    between atoms: _243  and  _244
REMARK   95  A    between atoms: _254  and  _256
REMARK   96  A    between atoms: _256  and  _257
REMARK   97  A    between atoms: _256  and  _259
REMARK   98  A    between atoms: _259  and  _260
REMARK   99  A    between atoms: _263  and  _265
REMARK  100  A    between atoms: _265  and  _266
REMARK  101  A    between atoms: _265  and  _268
REMARK  102  A    between atoms: _268  and  _269
REMARK  103  A    between atoms: _272  and  _274
REMARK  104  A    between atoms: _274  and  _275
REMARK  105  A    between atoms: _274  and  _277
REMARK  106  A    between atoms: _277  and  _278
REMARK  107  A    between atoms: _288  and  _290
REMARK  108  A    between atoms: _290  and  _291
REMARK  109  A    between atoms: _290  and  _293
REMARK  110  A    between atoms: _293  and  _294
REMARK  111  A    between atoms: _294  and  _295
REMARK  112  A    between atoms: _297  and  _299
REMARK  113  A    between atoms: _299  and  _300
REMARK  114  A    between atoms: _299  and  _302
REMARK  115  A    between atoms: _302  and  _303
REMARK  116  A    between atoms: _305  and  _307
REMARK  117  A    between atoms: _307  and  _308
REMARK  118  A    between atoms: _307  and  _310
REMARK  119  A    between atoms: _310  and  _311
REMARK  120  A    between atoms: _316  and  _317
REMARK  121  A    between atoms: _319  and  _321
REMARK  122  A    between atoms: _321  and  _322
REMARK  123  A    between atoms: _321  and  _324
REMARK  124  A    between atoms: _324  and  _325
REMARK  125  A    between atoms: _330  and  _331
REMARK  126  A    between atoms: _333  and  _335
REMARK  127  A    between atoms: _335  and  _336
REMARK  128  A    between atoms: _335  and  _338
REMARK  129  A    between atoms: _338  and  _339
REMARK  130  A    between atoms: _339  and  _340
REMARK  131  A    between atoms: _342  and  _344
REMARK  132  A    between atoms: _344  and  _345
REMARK  133  A    between atoms: _344  and  _347
REMARK  134  A    between atoms: _347  and  _348
REMARK  135  A    between atoms: _353  and  _354
REMARK  136  A    between atoms: _356  and  _358
REMARK  137  A    between atoms: _358  and  _359
REMARK  138  A    between atoms: _358  and  _361
REMARK  139  A    between atoms: _361  and  _362
REMARK  140  A    between atoms: _362  and  _363
REMARK  141  A    between atoms: _365  and  _367
REMARK  142  A    between atoms: _367  and  _368
REMARK  143  A    between atoms: _367  and  _370
REMARK  144  A    between atoms: _370  and  _371
REMARK  145  A    between atoms: _376  and  _378
REMARK  146  A    between atoms: _378  and  _379
REMARK  147  A    between atoms: _382  and  _384
REMARK  148  A    between atoms: _384  and  _385
REMARK  149  A    between atoms: _384  and  _387
REMARK  150  A    between atoms: _387  and  _388
REMARK  151  A    between atoms: _393  and  _395
REMARK  152  A    between atoms: _395  and  _396
REMARK  153  A    between atoms: _398  and  _400
REMARK  154  A    between atoms: _400  and  _401
REMARK  155  A    between atoms: _400  and  _403
REMARK  156  A    between atoms: _403  and  _404
REMARK  157  A    between atoms: _407  and  _409
REMARK  158  A    between atoms: _409  and  _410
REMARK  159  A    between atoms: _412  and  _414
REMARK  160  A    between atoms: _414  and  _415
REMARK  161  A    between atoms: _414  and  _417
REMARK  162  A    between atoms: _417  and  _418
REMARK  163  A    between atoms: _428  and  _430
REMARK  164  A    between atoms: _430  and  _431
REMARK  165  A    between atoms: _433  and  _435
REMARK  166  A    between atoms: _435  and  _436
REMARK  167  A    between atoms: _439  and  _441
REMARK  168  A    between atoms: _441  and  _442
REMARK  169  A    between atoms: _441  and  _444
REMARK  170  A    between atoms: _444  and  _445
REMARK  171  A    between atoms: _445  and  _446
REMARK  172  A    between atoms: _448  and  _450
REMARK  173  A    between atoms: _450  and  _451
REMARK  174  A    between atoms: _454  and  _456
REMARK  175  A    between atoms: _456  and  _457
REMARK  176  A    between atoms: _456  and  _459
REMARK  177  A    between atoms: _459  and  _460
REMARK  178  A    between atoms: _466  and  _468
REMARK  179  A    between atoms: _468  and  _469
REMARK  180  A    between atoms: _468  and  _471
REMARK  181  A    between atoms: _473  and  _475
REMARK  182  A    between atoms: _475  and  _476
REMARK  183  A    between atoms: _478  and  _480
REMARK  184  A    between atoms: _480  and  _481
REMARK  185  A    between atoms: _480  and  _483
REMARK  186  A    between atoms: _483  and  _484
REMARK  187  A    between atoms: _494  and  _496
REMARK  188  A    between atoms: _496  and  _497
REMARK  189  A    between atoms: _500  and  _502
REMARK  190  A    between atoms: _502  and  _503
REMARK  191  A    between atoms: _502  and  _505
REMARK  192  A    between atoms: _505  and  _506
REMARK  193  A    between atoms: _511  and  _513
REMARK  194  A    between atoms: _513  and  _514
REMARK  195  A    between atoms: _513  and  _516
REMARK  196  A    between atoms: _516  and  _517
REMARK                            x       y       z     vdW  Elec       q    Type
REMARK                         _______ _______ _______ _____ _____    ______ ____
ROOT
ATOM      1  O   HOH     1     -44.781 -52.191  17.790  0.00  0.00    +0.000 OA
ENDROOT
TORSDOF 0
REMARK  Name = ../refined-set-2016/4pfu/4pfu_pocket.pdb
REMARK  196 active torsions:
REMARK  status: ('A' for Active; 'I' for Inactive)
REMARK    1  A    between atoms: _1  and  _3
REMARK    2  A    between atoms: _3  and  _4
REMARK    3  A    between atoms: _3  and  _6
REMARK    4  A    between atoms: _6  and  _7
REMARK    5  A    between atoms: _12  and  _13
REMARK    6  A    between atoms: _15  and  _17
REMARK    7  A    between atoms: _17  and  _18
REMARK    8  A    between atoms: _20  and  _22
REMARK    9  A    between atoms: _22  and  _23
REMARK   10  A    between atoms: _25  and  _27
REMARK   11  A    between atoms: _27  and  _28
REMARK   12  A    between atoms: _27  and  _30
REMARK   13  A    between atoms: _30  and  _31
REMARK   14  A    between atoms: _33  and  _35
REMARK   15  A    between atoms: _35  and  _36
REMARK   16  A    between atoms: _35  and  _38
REMARK   17  A    between atoms: _38  and  _39
REMARK   18  A    between atoms: _42  and  _44
REMARK   19  A    between atoms: _44  and  _45
REMARK   20  A    between atoms: _44  and  _47
REMARK   21  A    between atoms: _47  and  _48
REMARK   22  A    between atoms: _59  and  _60
REMARK   23  A    between atoms: _65  and  _67
REMARK   24  A    between atoms: _67  and  _68
REMARK   25  A    between atoms: _67  and  _70
REMARK   26  A    between atoms: _70  and  _71
REMARK   27  A    between atoms: _73  and  _75
REMARK   28  A    between atoms: _75  and  _76
REMARK   29  A    between atoms: _75  and  _78
REMARK   30  A    between atoms: _78  and  _79
REMARK   31  A    between atoms: _84  and  _86
REMARK   32  A    between atoms: _86  and  _87
REMARK   33  A    between atoms: _86  and  _89
REMARK   34  A    between atoms: _89  and  _90
REMARK   35  A    between atoms: _95  and  _97
REMARK   36  A    between atoms: _97  and  _98
REMARK   37  A    between atoms: _101  and  _103
REMARK   38  A    between atoms: _103  and  _104
REMARK   39  A    between atoms: _103  and  _106
REMARK   40  A    between atoms: _106  and  _107
REMARK   41  A    between atoms: _109  and  _111
REMARK   42  A    between atoms: _111  and  _112
REMARK   43  A    between atoms: _111  and  _114
REMARK   44  A    between atoms: _114  and  _115
REMARK   45  A    between atoms: _120  and  _122
REMARK   46  A    between atoms: _122  and  _123
REMARK   47  A    between atoms: _122  and  _125
REMARK   48  A    between atoms: _125  and  _126
REMARK   49  A    between atoms: _132  and  _134
REMARK   50  A    between atoms: _134  and  _135
REMARK   51  A    between atoms: _134  and  _137
REMARK   52  A    between atoms: _137  and  _138
REMARK   53  A    between atoms: _138  and  _139
REMARK   54  A    between atoms: _141  and  _143
REMARK   55  A    between atoms: _143  and  _144
REMARK   56  A    between atoms: _143  and  _146
REMARK   57  A    between atoms: _146  and  _147
REMARK   58  A    between atoms: _150  and  _152
REMARK   59  A    between atoms: _152  and  _153
REMARK   60  A    between atoms: _152  and  _155
REMARK   61  A    between atoms: _155  and  _156
REMARK   62  A    between atoms: _158  and  _160
REMARK   63  A    between atoms: _160  and  _161
REMARK   64  A    between atoms: _160  and  _163
REMARK   65  A    between atoms: _163  and  _164
REMARK   66  A    between atoms: _167  and  _169
REMARK   67  A    between atoms: _169  and  _170
REMARK   68  A    between atoms: _169  and  _172
REMARK   69  A    between atoms: _175  and  _177
REMARK   70  A    between atoms: _177  and  _178
REMARK   71  A    between atoms: _177  and  _180
REMARK   72  A    between atoms: _183  and  _185
REMARK   73  A    between atoms: _185  and  _186
REMARK   74  A    between atoms: _185  and  _188
REMARK   75  A    between atoms: _188  and  _189
REMARK   76  A    between atoms: _194  and  _195
REMARK   77  A    between atoms: _197  and  _199
REMARK   78  A    between atoms: _199  and  _200
REMARK   79  A    between atoms: _199  and  _202
REMARK   80  A    between atoms: _205  and  _207
REMARK   81  A    between atoms: _207  and  _208
REMARK   82  A    between atoms: _207  and  _210
REMARK   83  A    between atoms: _213  and  _214
REMARK   84  A    between atoms: _219  and  _221
REMARK   85  A    between atoms: _221  and  _222
REMARK   86  A    between atoms: _221  and  _224
REMARK   87  A    between atoms: _224  and  _225
REMARK   88  A    between atoms: _230  and  _231
REMARK   89  A    between atoms: _233  and  _235
REMARK   90  A    between atoms: _235  and  _236
REMARK   91  A    between atoms: _238  and  _240
REMARK   92  A    between atoms: _240  and  _241
REMARK   93  A    between atoms: _240  and  _243
REMARK   94  A    between atoms: _243  and  _244
REMARK   95  A    between atoms: _254  and  _256
REMARK   96  A    between atoms: _256  and  _257
REMARK   97  A    between atoms: _256  and  _259
REMARK   98  A    between atoms: _259  and  _260
REMARK   99  A    between atoms: _263  and  _265
REMARK  100  A    between atoms: _265  and  _266
REMARK  101  A    between atoms: _265  and  _268
REMARK  102  A    between atoms: _268  and  _269
REMARK  103  A    between atoms: _272  and  _274
REMARK  104  A    between atoms: _274  and  _275
REMARK  105  A    between atoms: _274  and  _277
REMARK  106  A    between atoms: _277  and  _278
REMARK  107  A    between atoms: _288  and  _290
REMARK  108  A    between atoms: _290  and  _291
REMARK  109  A    between atoms: _290  and  _293
REMARK  110  A    between atoms: _293  and  _294
REMARK  111  A    between atoms: _294  and  _295
REMARK  112  A    between atoms: _297  and  _299
REMARK  113  A    between atoms: _299  and  _300
REMARK  114  A    between atoms: _299  and  _302
REMARK  115  A    between atoms: _302  and  _303
REMARK  116  A    between atoms: _305  and  _307
REMARK  117  A    between atoms: _307  and  _308
REMARK  118  A    between atoms: _307  and  _310
REMARK  119  A    between atoms: _310  and  _311
REMARK  120  A    between atoms: _316  and  _317
REMARK  121  A    between atoms: _319  and  _321
REMARK  122  A    between atoms: _321  and  _322
REMARK  123  A    between atoms: _321  and  _324
REMARK  124  A    between atoms: _324  and  _325
REMARK  125  A    between atoms: _330  and  _331
REMARK  126  A    between atoms: _333  and  _335
REMARK  127  A    between atoms: _335  and  _336
REMARK  128  A    between atoms: _335  and  _338
REMARK  129  A    between atoms: _338  and  _339
REMARK  130  A    between atoms: _339  and  _340
REMARK  131  A    between atoms: _342  and  _344
REMARK  132  A    between atoms: _344  and  _345
REMARK  133  A    between atoms: _344  and  _347
REMARK  134  A    between atoms: _347  and  _348
REMARK  135  A    between atoms: _353  and  _354
REMARK  136  A    between atoms: _356  and  _358
REMARK  137  A    between atoms: _358  and  _359
REMARK  138  A    between atoms: _358  and  _361
REMARK  139  A    between atoms: _361  and  _362
REMARK  140  A    between atoms: _362  and  _363
REMARK  141  A    between atoms: _365  and  _367
REMARK  142  A    between atoms: _367  and  _368
REMARK  143  A    between atoms: _367  and  _370
REMARK  144  A    between atoms: _370  and  _371
REMARK  145  A    between atoms: _376  and  _378
REMARK  146  A    between atoms: _378  and  _379
REMARK  147  A    between atoms: _382  and  _384
REMARK  148  A    between atoms: _384  and  _385
REMARK  149  A    between atoms: _384  and  _387
REMARK  150  A    between atoms: _387  and  _388
REMARK  151  A    between atoms: _393  and  _395
REMARK  152  A    between atoms: _395  and  _396
REMARK  153  A    between atoms: _398  and  _400
REMARK  154  A    between atoms: _400  and  _401
REMARK  155  A    between atoms: _400  and  _403
REMARK  156  A    between atoms: _403  and  _404
REMARK  157  A    between atoms: _407  and  _409
REMARK  158  A    between atoms: _409  and  _410
REMARK  159  A    between atoms: _412  and  _414
REMARK  160  A    between atoms: _414  and  _415
REMARK  161  A    between atoms: _414  and  _417
REMARK  162  A    between atoms: _417  and  _418
REMARK  163  A    between atoms: _428  and  _430
REMARK  164  A    between atoms: _430  and  _431
REMARK  165  A    between atoms: _433  and  _435
REMARK  166  A    between atoms: _435  and  _436
REMARK  167  A    between atoms: _439  and  _441
REMARK  168  A    between atoms: _441  and  _442
REMARK  169  A    between atoms: _441  and  _444
REMARK  170  A    between atoms: _444  and  _445
REMARK  171  A    between atoms: _445  and  _446
REMARK  172  A    between atoms: _448  and  _450
REMARK  173  A    between atoms: _450  and  _451
REMARK  174  A    between atoms: _454  and  _456
REMARK  175  A    between atoms: _456  and  _457
REMARK  176  A    between atoms: _456  and  _459
REMARK  177  A    between atoms: _459  and  _460
REMARK  178  A    between atoms: _466  and  _468
REMARK  179  A    between atoms: _468  and  _469
REMARK  180  A    between atoms: _468  and  _471
REMARK  181  A    between atoms: _473  and  _475
REMARK  182  A    between atoms: _475  and  _476
REMARK  183  A    between atoms: _478  and  _480
REMARK  184  A    between atoms: _480  and  _481
REMARK  185  A    between atoms: _480  and  _483
REMARK  186  A    between atoms: _483  and  _484
REMARK  187  A    between atoms: _494  and  _496
REMARK  188  A    between atoms: _496  and  _497
REMARK  189  A    between atoms: _500  and  _502
REMARK  190  A    between atoms: _502  and  _503
REMARK  191  A    between atoms: _502  and  _505
REMARK  192  A    between atoms: _505  and  _506
REMARK  193  A    between atoms: _511  and  _513
REMARK  194  A    between atoms: _513  and  _514
REMARK  195  A    between atoms: _513  and  _516
REMARK  196  A    between atoms: _516  and  _517
REMARK                            x       y       z     vdW  Elec       q    Type
REMARK                         _______ _______ _______ _____ _____    ______ ____
ROOT
ATOM      1  O   HOH     1     -34.700 -62.609  16.341  0.00  0.00    +0.000 OA
ENDROOT
TORSDOF 0
REMARK  Name = ../refined-set-2016/4pfu/4pfu_pocket.pdb
REMARK  196 active torsions:
REMARK  status: ('A' for Active; 'I' for Inactive)
REMARK    1  A    between atoms: _1  and  _3
REMARK    2  A    between atoms: _3  and  _4
REMARK    3  A    between atoms: _3  and  _6
REMARK    4  A    between atoms: _6  and  _7
REMARK    5  A    between atoms: _12  and  _13
REMARK    6  A    between atoms: _15  and  _17
REMARK    7  A    between atoms: _17  and  _18
REMARK    8  A    between atoms: _20  and  _22
REMARK    9  A    between atoms: _22  and  _23
REMARK   10  A    between atoms: _25  and  _27
REMARK   11  A    between atoms: _27  and  _28
REMARK   12  A    between atoms: _27  and  _30
REMARK   13  A    between atoms: _30  and  _31
REMARK   14  A    between atoms: _33  and  _35
REMARK   15  A    between atoms: _35  and  _36
REMARK   16  A    between atoms: _35  and  _38
REMARK   17  A    between atoms: _38  and  _39
REMARK   18  A    between atoms: _42  and  _44
REMARK   19  A    between atoms: _44  and  _45
REMARK   20  A    between atoms: _44  and  _47
REMARK   21  A    between atoms: _47  and  _48
REMARK   22  A    between atoms: _59  and  _60
REMARK   23  A    between atoms: _65  and  _67
REMARK   24  A    between atoms: _67  and  _68
REMARK   25  A    between atoms: _67  and  _70
REMARK   26  A    between atoms: _70  and  _71
REMARK   27  A    between atoms: _73  and  _75
REMARK   28  A    between atoms: _75  and  _76
REMARK   29  A    between atoms: _75  and  _78
REMARK   30  A    between atoms: _78  and  _79
REMARK   31  A    between atoms: _84  and  _86
REMARK   32  A    between atoms: _86  and  _87
REMARK   33  A    between atoms: _86  and  _89
REMARK   34  A    between atoms: _89  and  _90
REMARK   35  A    between atoms: _95  and  _97
REMARK   36  A    between atoms: _97  and  _98
REMARK   37  A    between atoms: _101  and  _103
REMARK   38  A    between atoms: _103  and  _104
REMARK   39  A    between atoms: _103  and  _106
REMARK   40  A    between atoms: _106  and  _107
REMARK   41  A    between atoms: _109  and  _111
REMARK   42  A    between atoms: _111  and  _112
REMARK   43  A    between atoms: _111  and  _114
REMARK   44  A    between atoms: _114  and  _115
REMARK   45  A    between atoms: _120  and  _122
REMARK   46  A    between atoms: _122  and  _123
REMARK   47  A    between atoms: _122  and  _125
REMARK   48  A    between atoms: _125  and  _126
REMARK   49  A    between atoms: _132  and  _134
REMARK   50  A    between atoms: _134  and  _135
REMARK   51  A    between atoms: _134  and  _137
REMARK   52  A    between atoms: _137  and  _138
REMARK   53  A    between atoms: _138  and  _139
REMARK   54  A    between atoms: _141  and  _143
REMARK   55  A    between atoms: _143  and  _144
REMARK   56  A    between atoms: _143  and  _146
REMARK   57  A    between atoms: _146  and  _147
REMARK   58  A    between atoms: _150  and  _152
REMARK   59  A    between atoms: _152  and  _153
REMARK   60  A    between atoms: _152  and  _155
REMARK   61  A    between atoms: _155  and  _156
REMARK   62  A    between atoms: _158  and  _160
REMARK   63  A    between atoms: _160  and  _161
REMARK   64  A    between atoms: _160  and  _163
REMARK   65  A    between atoms: _163  and  _164
REMARK   66  A    between atoms: _167  and  _169
REMARK   67  A    between atoms: _169  and  _170
REMARK   68  A    between atoms: _169  and  _172
REMARK   69  A    between atoms: _175  and  _177
REMARK   70  A    between atoms: _177  and  _178
REMARK   71  A    between atoms: _177  and  _180
REMARK   72  A    between atoms: _183  and  _185
REMARK   73  A    between atoms: _185  and  _186
REMARK   74  A    between atoms: _185  and  _188
REMARK   75  A    between atoms: _188  and  _189
REMARK   76  A    between atoms: _194  and  _195
REMARK   77  A    between atoms: _197  and  _199
REMARK   78  A    between atoms: _199  and  _200
REMARK   79  A    between atoms: _199  and  _202
REMARK   80  A    between atoms: _205  and  _207
REMARK   81  A    between atoms: _207  and  _208
REMARK   82  A    between atoms: _207  and  _210
REMARK   83  A    between atoms: _213  and  _214
REMARK   84  A    between atoms: _219  and  _221
REMARK   85  A    between atoms: _221  and  _222
REMARK   86  A    between atoms: _221  and  _224
REMARK   87  A    between atoms: _224  and  _225
REMARK   88  A    between atoms: _230  and  _231
REMARK   89  A    between atoms: _233  and  _235
REMARK   90  A    between atoms: _235  and  _236
REMARK   91  A    between atoms: _238  and  _240
REMARK   92  A    between atoms: _240  and  _241
REMARK   93  A    between atoms: _240  and  _243
REMARK   94  A    between atoms: _243  and  _244
REMARK   95  A    between atoms: _254  and  _256
REMARK   96  A    between atoms: _256  and  _257
REMARK   97  A    between atoms: _256  and  _259
REMARK   98  A    between atoms: _259  and  _260
REMARK   99  A    between atoms: _263  and  _265
REMARK  100  A    between atoms: _265  and  _266
REMARK  101  A    between atoms: _265  and  _268
REMARK  102  A    between atoms: _268  and  _269
REMARK  103  A    between atoms: _272  and  _274
REMARK  104  A    between atoms: _274  and  _275
REMARK  105  A    between atoms: _274  and  _277
REMARK  106  A    between atoms: _277  and  _278
REMARK  107  A    between atoms: _288  and  _290
REMARK  108  A    between atoms: _290  and  _291
REMARK  109  A    between atoms: _290  and  _293
REMARK  110  A    between atoms: _293  and  _294
REMARK  111  A    between atoms: _294  and  _295
REMARK  112  A    between atoms: _297  and  _299
REMARK  113  A    between atoms: _299  and  _300
REMARK  114  A    between atoms: _299  and  _302
REMARK  115  A    between atoms: _302  and  _303
REMARK  116  A    between atoms: _305  and  _307
REMARK  117  A    between atoms: _307  and  _308
REMARK  118  A    between atoms: _307  and  _310
REMARK  119  A    between atoms: _310  and  _311
REMARK  120  A    between atoms: _316  and  _317
REMARK  121  A    between atoms: _319  and  _321
REMARK  122  A    between atoms: _321  and  _322
REMARK  123  A    between atoms: _321  and  _324
REMARK  124  A    between atoms: _324  and  _325
REMARK  125  A    between atoms: _330  and  _331
REMARK  126  A    between atoms: _333  and  _335
REMARK  127  A    between atoms: _335  and  _336
REMARK  128  A    between atoms: _335  and  _338
REMARK  129  A    between atoms: _338  and  _339
REMARK  130  A    between atoms: _339  and  _340
REMARK  131  A    between atoms: _342  and  _344
REMARK  132  A    between atoms: _344  and  _345
REMARK  133  A    between atoms: _344  and  _347
REMARK  134  A    between atoms: _347  and  _348
REMARK  135  A    between atoms: _353  and  _354
REMARK  136  A    between atoms: _356  and  _358
REMARK  137  A    between atoms: _358  and  _359
REMARK  138  A    between atoms: _358  and  _361
REMARK  139  A    between atoms: _361  and  _362
REMARK  140  A    between atoms: _362  and  _363
REMARK  141  A    between atoms: _365  and  _367
REMARK  142  A    between atoms: _367  and  _368
REMARK  143  A    between atoms: _367  and  _370
REMARK  144  A    between atoms: _370  and  _371
REMARK  145  A    between atoms: _376  and  _378
REMARK  146  A    between atoms: _378  and  _379
REMARK  147  A    between atoms: _382  and  _384
REMARK  148  A    between atoms: _384  and  _385
REMARK  149  A    between atoms: _384  and  _387
REMARK  150  A    between atoms: _387  and  _388
REMARK  151  A    between atoms: _393  and  _395
REMARK  152  A    between atoms: _395  and  _396
REMARK  153  A    between atoms: _398  and  _400
REMARK  154  A    between atoms: _400  and  _401
REMARK  155  A    between atoms: _400  and  _403
REMARK  156  A    between atoms: _403  and  _404
REMARK  157  A    between atoms: _407  and  _409
REMARK  158  A    between atoms: _409  and  _410
REMARK  159  A    between atoms: _412  and  _414
REMARK  160  A    between atoms: _414  and  _415
REMARK  161  A    between atoms: _414  and  _417
REMARK  162  A    between atoms: _417  and  _418
REMARK  163  A    between atoms: _428  and  _430
REMARK  164  A    between atoms: _430  and  _431
REMARK  165  A    between atoms: _433  and  _435
REMARK  166  A    between atoms: _435  and  _436
REMARK  167  A    between atoms: _439  and  _441
REMARK  168  A    between atoms: _441  and  _442
REMARK  169  A    between atoms: _441  and  _444
REMARK  170  A    between atoms: _444  and  _445
REMARK  171  A    between atoms: _445  and  _446
REMARK  172  A    between atoms: _448  and  _450
REMARK  173  A    between atoms: _450  and  _451
REMARK  174  A    between atoms: _454  and  _456
REMARK  175  A    between atoms: _456  and  _457
REMARK  176  A    between atoms: _456  and  _459
REMARK  177  A    between atoms: _459  and  _460
REMARK  178  A    between atoms: _466  and  _468
REMARK  179  A    between atoms: _468  and  _469
REMARK  180  A    between atoms: _468  and  _471
REMARK  181  A    between atoms: _473  and  _475
REMARK  182  A    between atoms: _475  and  _476
REMARK  183  A    between atoms: _478  and  _480
REMARK  184  A    between atoms: _480  and  _481
REMARK  185  A    between atoms: _480  and  _483
REMARK  186  A    between atoms: _483  and  _484
REMARK  187  A    between atoms: _494  and  _496
REMARK  188  A    between atoms: _496  and  _497
REMARK  189  A    between atoms: _500  and  _502
REMARK  190  A    between atoms: _502  and  _503
REMARK  191  A    between atoms: _502  and  _505
REMARK  192  A    between atoms: _505  and  _506
REMARK  193  A    between atoms: _511  and  _513
REMARK  194  A    between atoms: _513  and  _514
REMARK  195  A    between atoms: _513  and  _516
REMARK  196  A    between atoms: _516  and  _517
REMARK                            x       y       z     vdW  Elec       q    Type
REMARK                         _______ _______ _______ _____ _____    ______ ____
ROOT
ATOM      1  O   HOH     1     -34.080 -57.353   9.916  0.00  0.00    +0.000 OA
ENDROOT
TORSDOF 0
REMARK  Name = ../refined-set-2016/4pfu/4pfu_pocket.pdb
REMARK  196 active torsions:
REMARK  status: ('A' for Active; 'I' for Inactive)
REMARK    1  A    between atoms: _1  and  _3
REMARK    2  A    between atoms: _3  and  _4
REMARK    3  A    between atoms: _3  and  _6
REMARK    4  A    between atoms: _6  and  _7
REMARK    5  A    between atoms: _12  and  _13
REMARK    6  A    between atoms: _15  and  _17
REMARK    7  A    between atoms: _17  and  _18
REMARK    8  A    between atoms: _20  and  _22
REMARK    9  A    between atoms: _22  and  _23
REMARK   10  A    between atoms: _25  and  _27
REMARK   11  A    between atoms: _27  and  _28
REMARK   12  A    between atoms: _27  and  _30
REMARK   13  A    between atoms: _30  and  _31
REMARK   14  A    between atoms: _33  and  _35
REMARK   15  A    between atoms: _35  and  _36
REMARK   16  A    between atoms: _35  and  _38
REMARK   17  A    between atoms: _38  and  _39
REMARK   18  A    between atoms: _42  and  _44
REMARK   19  A    between atoms: _44  and  _45
REMARK   20  A    between atoms: _44  and  _47
REMARK   21  A    between atoms: _47  and  _48
REMARK   22  A    between atoms: _59  and  _60
REMARK   23  A    between atoms: _65  and  _67
REMARK   24  A    between atoms: _67  and  _68
REMARK   25  A    between atoms: _67  and  _70
REMARK   26  A    between atoms: _70  and  _71
REMARK   27  A    between atoms: _73  and  _75
REMARK   28  A    between atoms: _75  and  _76
REMARK   29  A    between atoms: _75  and  _78
REMARK   30  A    between atoms: _78  and  _79
REMARK   31  A    between atoms: _84  and  _86
REMARK   32  A    between atoms: _86  and  _87
REMARK   33  A    between atoms: _86  and  _89
REMARK   34  A    between atoms: _89  and  _90
REMARK   35  A    between atoms: _95  and  _97
REMARK   36  A    between atoms: _97  and  _98
REMARK   37  A    between atoms: _101  and  _103
REMARK   38  A    between atoms: _103  and  _104
REMARK   39  A    between atoms: _103  and  _106
REMARK   40  A    between atoms: _106  and  _107
REMARK   41  A    between atoms: _109  and  _111
REMARK   42  A    between atoms: _111  and  _112
REMARK   43  A    between atoms: _111  and  _114
REMARK   44  A    between atoms: _114  and  _115
REMARK   45  A    between atoms: _120  and  _122
REMARK   46  A    between atoms: _122  and  _123
REMARK   47  A    between atoms: _122  and  _125
REMARK   48  A    between atoms: _125  and  _126
REMARK   49  A    between atoms: _132  and  _134
REMARK   50  A    between atoms: _134  and  _135
REMARK   51  A    between atoms: _134  and  _137
REMARK   52  A    between atoms: _137  and  _138
REMARK   53  A    between atoms: _138  and  _139
REMARK   54  A    between atoms: _141  and  _143
REMARK   55  A    between atoms: _143  and  _144
REMARK   56  A    between atoms: _143  and  _146
REMARK   57  A    between atoms: _146  and  _147
REMARK   58  A    between atoms: _150  and  _152
REMARK   59  A    between atoms: _152  and  _153
REMARK   60  A    between atoms: _152  and  _155
REMARK   61  A    between atoms: _155  and  _156
REMARK   62  A    between atoms: _158  and  _160
REMARK   63  A    between atoms: _160  and  _161
REMARK   64  A    between atoms: _160  and  _163
REMARK   65  A    between atoms: _163  and  _164
REMARK   66  A    between atoms: _167  and  _169
REMARK   67  A    between atoms: _169  and  _170
REMARK   68  A    between atoms: _169  and  _172
REMARK   69  A    between atoms: _175  and  _177
REMARK   70  A    between atoms: _177  and  _178
REMARK   71  A    between atoms: _177  and  _180
REMARK   72  A    between atoms: _183  and  _185
REMARK   73  A    between atoms: _185  and  _186
REMARK   74  A    between atoms: _185  and  _188
REMARK   75  A    between atoms: _188  and  _189
REMARK   76  A    between atoms: _194  and  _195
REMARK   77  A    between atoms: _197  and  _199
REMARK   78  A    between atoms: _199  and  _200
REMARK   79  A    between atoms: _199  and  _202
REMARK   80  A    between atoms: _205  and  _207
REMARK   81  A    between atoms: _207  and  _208
REMARK   82  A    between atoms: _207  and  _210
REMARK   83  A    between atoms: _213  and  _214
REMARK   84  A    between atoms: _219  and  _221
REMARK   85  A    between atoms: _221  and  _222
REMARK   86  A    between atoms: _221  and  _224
REMARK   87  A    between atoms: _224  and  _225
REMARK   88  A    between atoms: _230  and  _231
REMARK   89  A    between atoms: _233  and  _235
REMARK   90  A    between atoms: _235  and  _236
REMARK   91  A    between atoms: _238  and  _240
REMARK   92  A    between atoms: _240  and  _241
REMARK   93  A    between atoms: _240  and  _243
REMARK   94  A    between atoms: _243  and  _244
REMARK   95  A    between atoms: _254  and  _256
REMARK   96  A    between atoms: _256  and  _257
REMARK   97  A    between atoms: _256  and  _259
REMARK   98  A    between atoms: _259  and  _260
REMARK   99  A    between atoms: _263  and  _265
REMARK  100  A    between atoms: _265  and  _266
REMARK  101  A    between atoms: _265  and  _268
REMARK  102  A    between atoms: _268  and  _269
REMARK  103  A    between atoms: _272  and  _274
REMARK  104  A    between atoms: _274  and  _275
REMARK  105  A    between atoms: _274  and  _277
REMARK  106  A    between atoms: _277  and  _278
REMARK  107  A    between atoms: _288  and  _290
REMARK  108  A    between atoms: _290  and  _291
REMARK  109  A    between atoms: _290  and  _293
REMARK  110  A    between atoms: _293  and  _294
REMARK  111  A    between atoms: _294  and  _295
REMARK  112  A    between atoms: _297  and  _299
REMARK  113  A    between atoms: _299  and  _300
REMARK  114  A    between atoms: _299  and  _302
REMARK  115  A    between atoms: _302  and  _303
REMARK  116  A    between atoms: _305  and  _307
REMARK  117  A    between atoms: _307  and  _308
REMARK  118  A    between atoms: _307  and  _310
REMARK  119  A    between atoms: _310  and  _311
REMARK  120  A    between atoms: _316  and  _317
REMARK  121  A    between atoms: _319  and  _321
REMARK  122  A    between atoms: _321  and  _322
REMARK  123  A    between atoms: _321  and  _324
REMARK  124  A    between atoms: _324  and  _325
REMARK  125  A    between atoms: _330  and  _331
REMARK  126  A    between atoms: _333  and  _335
REMARK  127  A    between atoms: _335  and  _336
REMARK  128  A    between atoms: _335  and  _338
REMARK  129  A    between atoms: _338  and  _339
REMARK  130  A    between atoms: _339  and  _340
REMARK  131  A    between atoms: _342  and  _344
REMARK  132  A    between atoms: _344  and  _345
REMARK  133  A    between atoms: _344  and  _347
REMARK  134  A    between atoms: _347  and  _348
REMARK  135  A    between atoms: _353  and  _354
REMARK  136  A    between atoms: _356  and  _358
REMARK  137  A    between atoms: _358  and  _359
REMARK  138  A    between atoms: _358  and  _361
REMARK  139  A    between atoms: _361  and  _362
REMARK  140  A    between atoms: _362  and  _363
REMARK  141  A    between atoms: _365  and  _367
REMARK  142  A    between atoms: _367  and  _368
REMARK  143  A    between atoms: _367  and  _370
REMARK  144  A    between atoms: _370  and  _371
REMARK  145  A    between atoms: _376  and  _378
REMARK  146  A    between atoms: _378  and  _379
REMARK  147  A    between atoms: _382  and  _384
REMARK  148  A    between atoms: _384  and  _385
REMARK  149  A    between atoms: _384  and  _387
REMARK  150  A    between atoms: _387  and  _388
REMARK  151  A    between atoms: _393  and  _395
REMARK  152  A    between atoms: _395  and  _396
REMARK  153  A    between atoms: _398  and  _400
REMARK  154  A    between atoms: _400  and  _401
REMARK  155  A    between atoms: _400  and  _403
REMARK  156  A    between atoms: _403  and  _404
REMARK  157  A    between atoms: _407  and  _409
REMARK  158  A    between atoms: _409  and  _410
REMARK  159  A    between atoms: _412  and  _414
REMARK  160  A    between atoms: _414  and  _415
REMARK  161  A    between atoms: _414  and  _417
REMARK  162  A    between atoms: _417  and  _418
REMARK  163  A    between atoms: _428  and  _430
REMARK  164  A    between atoms: _430  and  _431
REMARK  165  A    between atoms: _433  and  _435
REMARK  166  A    between atoms: _435  and  _436
REMARK  167  A    between atoms: _439  and  _441
REMARK  168  A    between atoms: _441  and  _442
REMARK  169  A    between atoms: _441  and  _444
REMARK  170  A    between atoms: _444  and  _445
REMARK  171  A    between atoms: _445  and  _446
REMARK  172  A    between atoms: _448  and  _450
REMARK  173  A    between atoms: _450  and  _451
REMARK  174  A    between atoms: _454  and  _456
REMARK  175  A    between atoms: _456  and  _457
REMARK  176  A    between atoms: _456  and  _459
REMARK  177  A    between atoms: _459  and  _460
REMARK  178  A    between atoms: _466  and  _468
REMARK  179  A    between atoms: _468  and  _469
REMARK  180  A    between atoms: _468  and  _471
REMARK  181  A    between atoms: _473  and  _475
REMARK  182  A    between atoms: _475  and  _476
REMARK  183  A    between atoms: _478  and  _480
REMARK  184  A    between atoms: _480  and  _481
REMARK  185  A    between atoms: _480  and  _483
REMARK  186  A    between atoms: _483  and  _484
REMARK  187  A    between atoms: _494  and  _496
REMARK  188  A    between atoms: _496  and  _497
REMARK  189  A    between atoms: _500  and  _502
REMARK  190  A    between atoms: _502  and  _503
REMARK  191  A    between atoms: _502  and  _505
REMARK  192  A    between atoms: _505  and  _506
REMARK  193  A    between atoms: _511  and  _513
REMARK  194  A    between atoms: _513  and  _514
REMARK  195  A    between atoms: _513  and  _516
REMARK  196  A    between atoms: _516  and  _517
REMARK                            x       y       z     vdW  Elec       q    Type
REMARK                         _______ _______ _______ _____ _____    ______ ____
ROOT
ATOM      1  O   HOH     1     -39.570 -58.365  19.450  0.00  0.00    +0.000 OA
ENDROOT
TORSDOF 0
REMARK  Name = ../refined-set-2016/4pfu/4pfu_pocket.pdb
REMARK  196 active torsions:
REMARK  status: ('A' for Active; 'I' for Inactive)
REMARK    1  A    between atoms: _1  and  _3
REMARK    2  A    between atoms: _3  and  _4
REMARK    3  A    between atoms: _3  and  _6
REMARK    4  A    between atoms: _6  and  _7
REMARK    5  A    between atoms: _12  and  _13
REMARK    6  A    between atoms: _15  and  _17
REMARK    7  A    between atoms: _17  and  _18
REMARK    8  A    between atoms: _20  and  _22
REMARK    9  A    between atoms: _22  and  _23
REMARK   10  A    between atoms: _25  and  _27
REMARK   11  A    between atoms: _27  and  _28
REMARK   12  A    between atoms: _27  and  _30
REMARK   13  A    between atoms: _30  and  _31
REMARK   14  A    between atoms: _33  and  _35
REMARK   15  A    between atoms: _35  and  _36
REMARK   16  A    between atoms: _35  and  _38
REMARK   17  A    between atoms: _38  and  _39
REMARK   18  A    between atoms: _42  and  _44
REMARK   19  A    between atoms: _44  and  _45
REMARK   20  A    between atoms: _44  and  _47
REMARK   21  A    between atoms: _47  and  _48
REMARK   22  A    between atoms: _59  and  _60
REMARK   23  A    between atoms: _65  and  _67
REMARK   24  A    between atoms: _67  and  _68
REMARK   25  A    between atoms: _67  and  _70
REMARK   26  A    between atoms: _70  and  _71
REMARK   27  A    between atoms: _73  and  _75
REMARK   28  A    between atoms: _75  and  _76
REMARK   29  A    between atoms: _75  and  _78
REMARK   30  A    between atoms: _78  and  _79
REMARK   31  A    between atoms: _84  and  _86
REMARK   32  A    between atoms: _86  and  _87
REMARK   33  A    between atoms: _86  and  _89
REMARK   34  A    between atoms: _89  and  _90
REMARK   35  A    between atoms: _95  and  _97
REMARK   36  A    between atoms: _97  and  _98
REMARK   37  A    between atoms: _101  and  _103
REMARK   38  A    between atoms: _103  and  _104
REMARK   39  A    between atoms: _103  and  _106
REMARK   40  A    between atoms: _106  and  _107
REMARK   41  A    between atoms: _109  and  _111
REMARK   42  A    between atoms: _111  and  _112
REMARK   43  A    between atoms: _111  and  _114
REMARK   44  A    between atoms: _114  and  _115
REMARK   45  A    between atoms: _120  and  _122
REMARK   46  A    between atoms: _122  and  _123
REMARK   47  A    between atoms: _122  and  _125
REMARK   48  A    between atoms: _125  and  _126
REMARK   49  A    between atoms: _132  and  _134
REMARK   50  A    between atoms: _134  and  _135
REMARK   51  A    between atoms: _134  and  _137
REMARK   52  A    between atoms: _137  and  _138
REMARK   53  A    between atoms: _138  and  _139
REMARK   54  A    between atoms: _141  and  _143
REMARK   55  A    between atoms: _143  and  _144
REMARK   56  A    between atoms: _143  and  _146
REMARK   57  A    between atoms: _146  and  _147
REMARK   58  A    between atoms: _150  and  _152
REMARK   59  A    between atoms: _152  and  _153
REMARK   60  A    between atoms: _152  and  _155
REMARK   61  A    between atoms: _155  and  _156
REMARK   62  A    between atoms: _158  and  _160
REMARK   63  A    between atoms: _160  and  _161
REMARK   64  A    between atoms: _160  and  _163
REMARK   65  A    between atoms: _163  and  _164
REMARK   66  A    between atoms: _167  and  _169
REMARK   67  A    between atoms: _169  and  _170
REMARK   68  A    between atoms: _169  and  _172
REMARK   69  A    between atoms: _175  and  _177
REMARK   70  A    between atoms: _177  and  _178
REMARK   71  A    between atoms: _177  and  _180
REMARK   72  A    between atoms: _183  and  _185
REMARK   73  A    between atoms: _185  and  _186
REMARK   74  A    between atoms: _185  and  _188
REMARK   75  A    between atoms: _188  and  _189
REMARK   76  A    between atoms: _194  and  _195
REMARK   77  A    between atoms: _197  and  _199
REMARK   78  A    between atoms: _199  and  _200
REMARK   79  A    between atoms: _199  and  _202
REMARK   80  A    between atoms: _205  and  _207
REMARK   81  A    between atoms: _207  and  _208
REMARK   82  A    between atoms: _207  and  _210
REMARK   83  A    between atoms: _213  and  _214
REMARK   84  A    between atoms: _219  and  _221
REMARK   85  A    between atoms: _221  and  _222
REMARK   86  A    between atoms: _221  and  _224
REMARK   87  A    between atoms: _224  and  _225
REMARK   88  A    between atoms: _230  and  _231
REMARK   89  A    between atoms: _233  and  _235
REMARK   90  A    between atoms: _235  and  _236
REMARK   91  A    between atoms: _238  and  _240
REMARK   92  A    between atoms: _240  and  _241
REMARK   93  A    between atoms: _240  and  _243
REMARK   94  A    between atoms: _243  and  _244
REMARK   95  A    between atoms: _254  and  _256
REMARK   96  A    between atoms: _256  and  _257
REMARK   97  A    between atoms: _256  and  _259
REMARK   98  A    between atoms: _259  and  _260
REMARK   99  A    between atoms: _263  and  _265
REMARK  100  A    between atoms: _265  and  _266
REMARK  101  A    between atoms: _265  and  _268
REMARK  102  A    between atoms: _268  and  _269
REMARK  103  A    between atoms: _272  and  _274
REMARK  104  A    between atoms: _274  and  _275
REMARK  105  A    between atoms: _274  and  _277
REMARK  106  A    between atoms: _277  and  _278
REMARK  107  A    between atoms: _288  and  _290
REMARK  108  A    between atoms: _290  and  _291
REMARK  109  A    between atoms: _290  and  _293
REMARK  110  A    between atoms: _293  and  _294
REMARK  111  A    between atoms: _294  and  _295
REMARK  112  A    between atoms: _297  and  _299
REMARK  113  A    between atoms: _299  and  _300
REMARK  114  A    between atoms: _299  and  _302
REMARK  115  A    between atoms: _302  and  _303
REMARK  116  A    between atoms: _305  and  _307
REMARK  117  A    between atoms: _307  and  _308
REMARK  118  A    between atoms: _307  and  _310
REMARK  119  A    between atoms: _310  and  _311
REMARK  120  A    between atoms: _316  and  _317
REMARK  121  A    between atoms: _319  and  _321
REMARK  122  A    between atoms: _321  and  _322
REMARK  123  A    between atoms: _321  and  _324
REMARK  124  A    between atoms: _324  and  _325
REMARK  125  A    between atoms: _330  and  _331
REMARK  126  A    between atoms: _333  and  _335
REMARK  127  A    between atoms: _335  and  _336
REMARK  128  A    between atoms: _335  and  _338
REMARK  129  A    between atoms: _338  and  _339
REMARK  130  A    between atoms: _339  and  _340
REMARK  131  A    between atoms: _342  and  _344
REMARK  132  A    between atoms: _344  and  _345
REMARK  133  A    between atoms: _344  and  _347
REMARK  134  A    between atoms: _347  and  _348
REMARK  135  A    between atoms: _353  and  _354
REMARK  136  A    between atoms: _356  and  _358
REMARK  137  A    between atoms: _358  and  _359
REMARK  138  A    between atoms: _358  and  _361
REMARK  139  A    between atoms: _361  and  _362
REMARK  140  A    between atoms: _362  and  _363
REMARK  141  A    between atoms: _365  and  _367
REMARK  142  A    between atoms: _367  and  _368
REMARK  143  A    between atoms: _367  and  _370
REMARK  144  A    between atoms: _370  and  _371
REMARK  145  A    between atoms: _376  and  _378
REMARK  146  A    between atoms: _378  and  _379
REMARK  147  A    between atoms: _382  and  _384
REMARK  148  A    between atoms: _384  and  _385
REMARK  149  A    between atoms: _384  and  _387
REMARK  150  A    between atoms: _387  and  _388
REMARK  151  A    between atoms: _393  and  _395
REMARK  152  A    between atoms: _395  and  _396
REMARK  153  A    between atoms: _398  and  _400
REMARK  154  A    between atoms: _400  and  _401
REMARK  155  A    between atoms: _400  and  _403
REMARK  156  A    between atoms: _403  and  _404
REMARK  157  A    between atoms: _407  and  _409
REMARK  158  A    between atoms: _409  and  _410
REMARK  159  A    between atoms: _412  and  _414
REMARK  160  A    between atoms: _414  and  _415
REMARK  161  A    between atoms: _414  and  _417
REMARK  162  A    between atoms: _417  and  _418
REMARK  163  A    between atoms: _428  and  _430
REMARK  164  A    between atoms: _430  and  _431
REMARK  165  A    between atoms: _433  and  _435
REMARK  166  A    between atoms: _435  and  _436
REMARK  167  A    between atoms: _439  and  _441
REMARK  168  A    between atoms: _441  and  _442
REMARK  169  A    between atoms: _441  and  _444
REMARK  170  A    between atoms: _444  and  _445
REMARK  171  A    between atoms: _445  and  _446
REMARK  172  A    between atoms: _448  and  _450
REMARK  173  A    between atoms: _450  and  _451
REMARK  174  A    between atoms: _454  and  _456
REMARK  175  A    between atoms: _456  and  _457
REMARK  176  A    between atoms: _456  and  _459
REMARK  177  A    between atoms: _459  and  _460
REMARK  178  A    between atoms: _466  and  _468
REMARK  179  A    between atoms: _468  and  _469
REMARK  180  A    between atoms: _468  and  _471
REMARK  181  A    between atoms: _473  and  _475
REMARK  182  A    between atoms: _475  and  _476
REMARK  183  A    between atoms: _478  and  _480
REMARK  184  A    between atoms: _480  and  _481
REMARK  185  A    between atoms: _480  and  _483
REMARK  186  A    between atoms: _483  and  _484
REMARK  187  A    between atoms: _494  and  _496
REMARK  188  A    between atoms: _496  and  _497
REMARK  189  A    between atoms: _500  and  _502
REMARK  190  A    between atoms: _502  and  _503
REMARK  191  A    between atoms: _502  and  _505
REMARK  192  A    between atoms: _505  and  _506
REMARK  193  A    between atoms: _511  and  _513
REMARK  194  A    between atoms: _513  and  _514
REMARK  195  A    between atoms: _513  and  _516
REMARK  196  A    between atoms: _516  and  _517
REMARK                            x       y       z     vdW  Elec       q    Type
REMARK                         _______ _______ _______ _____ _____    ______ ____
ROOT
ATOM      1  O   HOH     1     -46.368 -54.509  16.482  0.00  0.00    +0.000 OA
ENDROOT
TORSDOF 0
REMARK  Name = ../refined-set-2016/4pfu/4pfu_pocket.pdb
REMARK  196 active torsions:
REMARK  status: ('A' for Active; 'I' for Inactive)
REMARK    1  A    between atoms: _1  and  _3
REMARK    2  A    between atoms: _3  and  _4
REMARK    3  A    between atoms: _3  and  _6
REMARK    4  A    between atoms: _6  and  _7
REMARK    5  A    between atoms: _12  and  _13
REMARK    6  A    between atoms: _15  and  _17
REMARK    7  A    between atoms: _17  and  _18
REMARK    8  A    between atoms: _20  and  _22
REMARK    9  A    between atoms: _22  and  _23
REMARK   10  A    between atoms: _25  and  _27
REMARK   11  A    between atoms: _27  and  _28
REMARK   12  A    between atoms: _27  and  _30
REMARK   13  A    between atoms: _30  and  _31
REMARK   14  A    between atoms: _33  and  _35
REMARK   15  A    between atoms: _35  and  _36
REMARK   16  A    between atoms: _35  and  _38
REMARK   17  A    between atoms: _38  and  _39
REMARK   18  A    between atoms: _42  and  _44
REMARK   19  A    between atoms: _44  and  _45
REMARK   20  A    between atoms: _44  and  _47
REMARK   21  A    between atoms: _47  and  _48
REMARK   22  A    between atoms: _59  and  _60
REMARK   23  A    between atoms: _65  and  _67
REMARK   24  A    between atoms: _67  and  _68
REMARK   25  A    between atoms: _67  and  _70
REMARK   26  A    between atoms: _70  and  _71
REMARK   27  A    between atoms: _73  and  _75
REMARK   28  A    between atoms: _75  and  _76
REMARK   29  A    between atoms: _75  and  _78
REMARK   30  A    between atoms: _78  and  _79
REMARK   31  A    between atoms: _84  and  _86
REMARK   32  A    between atoms: _86  and  _87
REMARK   33  A    between atoms: _86  and  _89
REMARK   34  A    between atoms: _89  and  _90
REMARK   35  A    between atoms: _95  and  _97
REMARK   36  A    between atoms: _97  and  _98
REMARK   37  A    between atoms: _101  and  _103
REMARK   38  A    between atoms: _103  and  _104
REMARK   39  A    between atoms: _103  and  _106
REMARK   40  A    between atoms: _106  and  _107
REMARK   41  A    between atoms: _109  and  _111
REMARK   42  A    between atoms: _111  and  _112
REMARK   43  A    between atoms: _111  and  _114
REMARK   44  A    between atoms: _114  and  _115
REMARK   45  A    between atoms: _120  and  _122
REMARK   46  A    between atoms: _122  and  _123
REMARK   47  A    between atoms: _122  and  _125
REMARK   48  A    between atoms: _125  and  _126
REMARK   49  A    between atoms: _132  and  _134
REMARK   50  A    between atoms: _134  and  _135
REMARK   51  A    between atoms: _134  and  _137
REMARK   52  A    between atoms: _137  and  _138
REMARK   53  A    between atoms: _138  and  _139
REMARK   54  A    between atoms: _141  and  _143
REMARK   55  A    between atoms: _143  and  _144
REMARK   56  A    between atoms: _143  and  _146
REMARK   57  A    between atoms: _146  and  _147
REMARK   58  A    between atoms: _150  and  _152
REMARK   59  A    between atoms: _152  and  _153
REMARK   60  A    between atoms: _152  and  _155
REMARK   61  A    between atoms: _155  and  _156
REMARK   62  A    between atoms: _158  and  _160
REMARK   63  A    between atoms: _160  and  _161
REMARK   64  A    between atoms: _160  and  _163
REMARK   65  A    between atoms: _163  and  _164
REMARK   66  A    between atoms: _167  and  _169
REMARK   67  A    between atoms: _169  and  _170
REMARK   68  A    between atoms: _169  and  _172
REMARK   69  A    between atoms: _175  and  _177
REMARK   70  A    between atoms: _177  and  _178
REMARK   71  A    between atoms: _177  and  _180
REMARK   72  A    between atoms: _183  and  _185
REMARK   73  A    between atoms: _185  and  _186
REMARK   74  A    between atoms: _185  and  _188
REMARK   75  A    between atoms: _188  and  _189
REMARK   76  A    between atoms: _194  and  _195
REMARK   77  A    between atoms: _197  and  _199
REMARK   78  A    between atoms: _199  and  _200
REMARK   79  A    between atoms: _199  and  _202
REMARK   80  A    between atoms: _205  and  _207
REMARK   81  A    between atoms: _207  and  _208
REMARK   82  A    between atoms: _207  and  _210
REMARK   83  A    between atoms: _213  and  _214
REMARK   84  A    between atoms: _219  and  _221
REMARK   85  A    between atoms: _221  and  _222
REMARK   86  A    between atoms: _221  and  _224
REMARK   87  A    between atoms: _224  and  _225
REMARK   88  A    between atoms: _230  and  _231
REMARK   89  A    between atoms: _233  and  _235
REMARK   90  A    between atoms: _235  and  _236
REMARK   91  A    between atoms: _238  and  _240
REMARK   92  A    between atoms: _240  and  _241
REMARK   93  A    between atoms: _240  and  _243
REMARK   94  A    between atoms: _243  and  _244
REMARK   95  A    between atoms: _254  and  _256
REMARK   96  A    between atoms: _256  and  _257
REMARK   97  A    between atoms: _256  and  _259
REMARK   98  A    between atoms: _259  and  _260
REMARK   99  A    between atoms: _263  and  _265
REMARK  100  A    between atoms: _265  and  _266
REMARK  101  A    between atoms: _265  and  _268
REMARK  102  A    between atoms: _268  and  _269
REMARK  103  A    between atoms: _272  and  _274
REMARK  104  A    between atoms: _274  and  _275
REMARK  105  A    between atoms: _274  and  _277
REMARK  106  A    between atoms: _277  and  _278
REMARK  107  A    between atoms: _288  and  _290
REMARK  108  A    between atoms: _290  and  _291
REMARK  109  A    between atoms: _290  and  _293
REMARK  110  A    between atoms: _293  and  _294
REMARK  111  A    between atoms: _294  and  _295
REMARK  112  A    between atoms: _297  and  _299
REMARK  113  A    between atoms: _299  and  _300
REMARK  114  A    between atoms: _299  and  _302
REMARK  115  A    between atoms: _302  and  _303
REMARK  116  A    between atoms: _305  and  _307
REMARK  117  A    between atoms: _307  and  _308
REMARK  118  A    between atoms: _307  and  _310
REMARK  119  A    between atoms: _310  and  _311
REMARK  120  A    between atoms: _316  and  _317
REMARK  121  A    between atoms: _319  and  _321
REMARK  122  A    between atoms: _321  and  _322
REMARK  123  A    between atoms: _321  and  _324
REMARK  124  A    between atoms: _324  and  _325
REMARK  125  A    between atoms: _330  and  _331
REMARK  126  A    between atoms: _333  and  _335
REMARK  127  A    between atoms: _335  and  _336
REMARK  128  A    between atoms: _335  and  _338
REMARK  129  A    between atoms: _338  and  _339
REMARK  130  A    between atoms: _339  and  _340
REMARK  131  A    between atoms: _342  and  _344
REMARK  132  A    between atoms: _344  and  _345
REMARK  133  A    between atoms: _344  and  _347
REMARK  134  A    between atoms: _347  and  _348
REMARK  135  A    between atoms: _353  and  _354
REMARK  136  A    between atoms: _356  and  _358
REMARK  137  A    between atoms: _358  and  _359
REMARK  138  A    between atoms: _358  and  _361
REMARK  139  A    between atoms: _361  and  _362
REMARK  140  A    between atoms: _362  and  _363
REMARK  141  A    between atoms: _365  and  _367
REMARK  142  A    between atoms: _367  and  _368
REMARK  143  A    between atoms: _367  and  _370
REMARK  144  A    between atoms: _370  and  _371
REMARK  145  A    between atoms: _376  and  _378
REMARK  146  A    between atoms: _378  and  _379
REMARK  147  A    between atoms: _382  and  _384
REMARK  148  A    between atoms: _384  and  _385
REMARK  149  A    between atoms: _384  and  _387
REMARK  150  A    between atoms: _387  and  _388
REMARK  151  A    between atoms: _393  and  _395
REMARK  152  A    between atoms: _395  and  _396
REMARK  153  A    between atoms: _398  and  _400
REMARK  154  A    between atoms: _400  and  _401
REMARK  155  A    between atoms: _400  and  _403
REMARK  156  A    between atoms: _403  and  _404
REMARK  157  A    between atoms: _407  and  _409
REMARK  158  A    between atoms: _409  and  _410
REMARK  159  A    between atoms: _412  and  _414
REMARK  160  A    between atoms: _414  and  _415
REMARK  161  A    between atoms: _414  and  _417
REMARK  162  A    between atoms: _417  and  _418
REMARK  163  A    between atoms: _428  and  _430
REMARK  164  A    between atoms: _430  and  _431
REMARK  165  A    between atoms: _433  and  _435
REMARK  166  A    between atoms: _435  and  _436
REMARK  167  A    between atoms: _439  and  _441
REMARK  168  A    between atoms: _441  and  _442
REMARK  169  A    between atoms: _441  and  _444
REMARK  170  A    between atoms: _444  and  _445
REMARK  171  A    between atoms: _445  and  _446
REMARK  172  A    between atoms: _448  and  _450
REMARK  173  A    between atoms: _450  and  _451
REMARK  174  A    between atoms: _454  and  _456
REMARK  175  A    between atoms: _456  and  _457
REMARK  176  A    between atoms: _456  and  _459
REMARK  177  A    between atoms: _459  and  _460
REMARK  178  A    between atoms: _466  and  _468
REMARK  179  A    between atoms: _468  and  _469
REMARK  180  A    between atoms: _468  and  _471
REMARK  181  A    between atoms: _473  and  _475
REMARK  182  A    between atoms: _475  and  _476
REMARK  183  A    between atoms: _478  and  _480
REMARK  184  A    between atoms: _480  and  _481
REMARK  185  A    between atoms: _480  and  _483
REMARK  186  A    between atoms: _483  and  _484
REMARK  187  A    between atoms: _494  and  _496
REMARK  188  A    between atoms: _496  and  _497
REMARK  189  A    between atoms: _500  and  _502
REMARK  190  A    between atoms: _502  and  _503
REMARK  191  A    between atoms: _502  and  _505
REMARK  192  A    between atoms: _505  and  _506
REMARK  193  A    between atoms: _511  and  _513
REMARK  194  A    between atoms: _513  and  _514
REMARK  195  A    between atoms: _513  and  _516
REMARK  196  A    between atoms: _516  and  _517
REMARK                            x       y       z     vdW  Elec       q    Type
REMARK                         _______ _______ _______ _____ _____    ______ ____
ROOT
ATOM      1  O   HOH     1     -33.288 -55.979   7.855  0.00  0.00    +0.000 OA
ENDROOT
TORSDOF 0
REMARK  Name = ../refined-set-2016/4pfu/4pfu_pocket.pdb
REMARK  196 active torsions:
REMARK  status: ('A' for Active; 'I' for Inactive)
REMARK    1  A    between atoms: _1  and  _3
REMARK    2  A    between atoms: _3  and  _4
REMARK    3  A    between atoms: _3  and  _6
REMARK    4  A    between atoms: _6  and  _7
REMARK    5  A    between atoms: _12  and  _13
REMARK    6  A    between atoms: _15  and  _17
REMARK    7  A    between atoms: _17  and  _18
REMARK    8  A    between atoms: _20  and  _22
REMARK    9  A    between atoms: _22  and  _23
REMARK   10  A    between atoms: _25  and  _27
REMARK   11  A    between atoms: _27  and  _28
REMARK   12  A    between atoms: _27  and  _30
REMARK   13  A    between atoms: _30  and  _31
REMARK   14  A    between atoms: _33  and  _35
REMARK   15  A    between atoms: _35  and  _36
REMARK   16  A    between atoms: _35  and  _38
REMARK   17  A    between atoms: _38  and  _39
REMARK   18  A    between atoms: _42  and  _44
REMARK   19  A    between atoms: _44  and  _45
REMARK   20  A    between atoms: _44  and  _47
REMARK   21  A    between atoms: _47  and  _48
REMARK   22  A    between atoms: _59  and  _60
REMARK   23  A    between atoms: _65  and  _67
REMARK   24  A    between atoms: _67  and  _68
REMARK   25  A    between atoms: _67  and  _70
REMARK   26  A    between atoms: _70  and  _71
REMARK   27  A    between atoms: _73  and  _75
REMARK   28  A    between atoms: _75  and  _76
REMARK   29  A    between atoms: _75  and  _78
REMARK   30  A    between atoms: _78  and  _79
REMARK   31  A    between atoms: _84  and  _86
REMARK   32  A    between atoms: _86  and  _87
REMARK   33  A    between atoms: _86  and  _89
REMARK   34  A    between atoms: _89  and  _90
REMARK   35  A    between atoms: _95  and  _97
REMARK   36  A    between atoms: _97  and  _98
REMARK   37  A    between atoms: _101  and  _103
REMARK   38  A    between atoms: _103  and  _104
REMARK   39  A    between atoms: _103  and  _106
REMARK   40  A    between atoms: _106  and  _107
REMARK   41  A    between atoms: _109  and  _111
REMARK   42  A    between atoms: _111  and  _112
REMARK   43  A    between atoms: _111  and  _114
REMARK   44  A    between atoms: _114  and  _115
REMARK   45  A    between atoms: _120  and  _122
REMARK   46  A    between atoms: _122  and  _123
REMARK   47  A    between atoms: _122  and  _125
REMARK   48  A    between atoms: _125  and  _126
REMARK   49  A    between atoms: _132  and  _134
REMARK   50  A    between atoms: _134  and  _135
REMARK   51  A    between atoms: _134  and  _137
REMARK   52  A    between atoms: _137  and  _138
REMARK   53  A    between atoms: _138  and  _139
REMARK   54  A    between atoms: _141  and  _143
REMARK   55  A    between atoms: _143  and  _144
REMARK   56  A    between atoms: _143  and  _146
REMARK   57  A    between atoms: _146  and  _147
REMARK   58  A    between atoms: _150  and  _152
REMARK   59  A    between atoms: _152  and  _153
REMARK   60  A    between atoms: _152  and  _155
REMARK   61  A    between atoms: _155  and  _156
REMARK   62  A    between atoms: _158  and  _160
REMARK   63  A    between atoms: _160  and  _161
REMARK   64  A    between atoms: _160  and  _163
REMARK   65  A    between atoms: _163  and  _164
REMARK   66  A    between atoms: _167  and  _169
REMARK   67  A    between atoms: _169  and  _170
REMARK   68  A    between atoms: _169  and  _172
REMARK   69  A    between atoms: _175  and  _177
REMARK   70  A    between atoms: _177  and  _178
REMARK   71  A    between atoms: _177  and  _180
REMARK   72  A    between atoms: _183  and  _185
REMARK   73  A    between atoms: _185  and  _186
REMARK   74  A    between atoms: _185  and  _188
REMARK   75  A    between atoms: _188  and  _189
REMARK   76  A    between atoms: _194  and  _195
REMARK   77  A    between atoms: _197  and  _199
REMARK   78  A    between atoms: _199  and  _200
REMARK   79  A    between atoms: _199  and  _202
REMARK   80  A    between atoms: _205  and  _207
REMARK   81  A    between atoms: _207  and  _208
REMARK   82  A    between atoms: _207  and  _210
REMARK   83  A    between atoms: _213  and  _214
REMARK   84  A    between atoms: _219  and  _221
REMARK   85  A    between atoms: _221  and  _222
REMARK   86  A    between atoms: _221  and  _224
REMARK   87  A    between atoms: _224  and  _225
REMARK   88  A    between atoms: _230  and  _231
REMARK   89  A    between atoms: _233  and  _235
REMARK   90  A    between atoms: _235  and  _236
REMARK   91  A    between atoms: _238  and  _240
REMARK   92  A    between atoms: _240  and  _241
REMARK   93  A    between atoms: _240  and  _243
REMARK   94  A    between atoms: _243  and  _244
REMARK   95  A    between atoms: _254  and  _256
REMARK   96  A    between atoms: _256  and  _257
REMARK   97  A    between atoms: _256  and  _259
REMARK   98  A    between atoms: _259  and  _260
REMARK   99  A    between atoms: _263  and  _265
REMARK  100  A    between atoms: _265  and  _266
REMARK  101  A    between atoms: _265  and  _268
REMARK  102  A    between atoms: _268  and  _269
REMARK  103  A    between atoms: _272  and  _274
REMARK  104  A    between atoms: _274  and  _275
REMARK  105  A    between atoms: _274  and  _277
REMARK  106  A    between atoms: _277  and  _278
REMARK  107  A    between atoms: _288  and  _290
REMARK  108  A    between atoms: _290  and  _291
REMARK  109  A    between atoms: _290  and  _293
REMARK  110  A    between atoms: _293  and  _294
REMARK  111  A    between atoms: _294  and  _295
REMARK  112  A    between atoms: _297  and  _299
REMARK  113  A    between atoms: _299  and  _300
REMARK  114  A    between atoms: _299  and  _302
REMARK  115  A    between atoms: _302  and  _303
REMARK  116  A    between atoms: _305  and  _307
REMARK  117  A    between atoms: _307  and  _308
REMARK  118  A    between atoms: _307  and  _310
REMARK  119  A    between atoms: _310  and  _311
REMARK  120  A    between atoms: _316  and  _317
REMARK  121  A    between atoms: _319  and  _321
REMARK  122  A    between atoms: _321  and  _322
REMARK  123  A    between atoms: _321  and  _324
REMARK  124  A    between atoms: _324  and  _325
REMARK  125  A    between atoms: _330  and  _331
REMARK  126  A    between atoms: _333  and  _335
REMARK  127  A    between atoms: _335  and  _336
REMARK  128  A    between atoms: _335  and  _338
REMARK  129  A    between atoms: _338  and  _339
REMARK  130  A    between atoms: _339  and  _340
REMARK  131  A    between atoms: _342  and  _344
REMARK  132  A    between atoms: _344  and  _345
REMARK  133  A    between atoms: _344  and  _347
REMARK  134  A    between atoms: _347  and  _348
REMARK  135  A    between atoms: _353  and  _354
REMARK  136  A    between atoms: _356  and  _358
REMARK  137  A    between atoms: _358  and  _359
REMARK  138  A    between atoms: _358  and  _361
REMARK  139  A    between atoms: _361  and  _362
REMARK  140  A    between atoms: _362  and  _363
REMARK  141  A    between atoms: _365  and  _367
REMARK  142  A    between atoms: _367  and  _368
REMARK  143  A    between atoms: _367  and  _370
REMARK  144  A    between atoms: _370  and  _371
REMARK  145  A    between atoms: _376  and  _378
REMARK  146  A    between atoms: _378  and  _379
REMARK  147  A    between atoms: _382  and  _384
REMARK  148  A    between atoms: _384  and  _385
REMARK  149  A    between atoms: _384  and  _387
REMARK  150  A    between atoms: _387  and  _388
REMARK  151  A    between atoms: _393  and  _395
REMARK  152  A    between atoms: _395  and  _396
REMARK  153  A    between atoms: _398  and  _400
REMARK  154  A    between atoms: _400  and  _401
REMARK  155  A    between atoms: _400  and  _403
REMARK  156  A    between atoms: _403  and  _404
REMARK  157  A    between atoms: _407  and  _409
REMARK  158  A    between atoms: _409  and  _410
REMARK  159  A    between atoms: _412  and  _414
REMARK  160  A    between atoms: _414  and  _415
REMARK  161  A    between atoms: _414  and  _417
REMARK  162  A    between atoms: _417  and  _418
REMARK  163  A    between atoms: _428  and  _430
REMARK  164  A    between atoms: _430  and  _431
REMARK  165  A    between atoms: _433  and  _435
REMARK  166  A    between atoms: _435  and  _436
REMARK  167  A    between atoms: _439  and  _441
REMARK  168  A    between atoms: _441  and  _442
REMARK  169  A    between atoms: _441  and  _444
REMARK  170  A    between atoms: _444  and  _445
REMARK  171  A    between atoms: _445  and  _446
REMARK  172  A    between atoms: _448  and  _450
REMARK  173  A    between atoms: _450  and  _451
REMARK  174  A    between atoms: _454  and  _456
REMARK  175  A    between atoms: _456  and  _457
REMARK  176  A    between atoms: _456  and  _459
REMARK  177  A    between atoms: _459  and  _460
REMARK  178  A    between atoms: _466  and  _468
REMARK  179  A    between atoms: _468  and  _469
REMARK  180  A    between atoms: _468  and  _471
REMARK  181  A    between atoms: _473  and  _475
REMARK  182  A    between atoms: _475  and  _476
REMARK  183  A    between atoms: _478  and  _480
REMARK  184  A    between atoms: _480  and  _481
REMARK  185  A    between atoms: _480  and  _483
REMARK  186  A    between atoms: _483  and  _484
REMARK  187  A    between atoms: _494  and  _496
REMARK  188  A    between atoms: _496  and  _497
REMARK  189  A    between atoms: _500  and  _502
REMARK  190  A    between atoms: _502  and  _503
REMARK  191  A    between atoms: _502  and  _505
REMARK  192  A    between atoms: _505  and  _506
REMARK  193  A    between atoms: _511  and  _513
REMARK  194  A    between atoms: _513  and  _514
REMARK  195  A    between atoms: _513  and  _516
REMARK  196  A    between atoms: _516  and  _517
REMARK                            x       y       z     vdW  Elec       q    Type
REMARK                         _______ _______ _______ _____ _____    ______ ____
ROOT
ATOM      1  O   HOH     1     -31.195 -57.680  18.848  0.00  0.00    +0.000 OA
ENDROOT
TORSDOF 0
REMARK  Name = ../refined-set-2016/4pfu/4pfu_pocket.pdb
REMARK  196 active torsions:
REMARK  status: ('A' for Active; 'I' for Inactive)
REMARK    1  A    between atoms: _1  and  _3
REMARK    2  A    between atoms: _3  and  _4
REMARK    3  A    between atoms: _3  and  _6
REMARK    4  A    between atoms: _6  and  _7
REMARK    5  A    between atoms: _12  and  _13
REMARK    6  A    between atoms: _15  and  _17
REMARK    7  A    between atoms: _17  and  _18
REMARK    8  A    between atoms: _20  and  _22
REMARK    9  A    between atoms: _22  and  _23
REMARK   10  A    between atoms: _25  and  _27
REMARK   11  A    between atoms: _27  and  _28
REMARK   12  A    between atoms: _27  and  _30
REMARK   13  A    between atoms: _30  and  _31
REMARK   14  A    between atoms: _33  and  _35
REMARK   15  A    between atoms: _35  and  _36
REMARK   16  A    between atoms: _35  and  _38
REMARK   17  A    between atoms: _38  and  _39
REMARK   18  A    between atoms: _42  and  _44
REMARK   19  A    between atoms: _44  and  _45
REMARK   20  A    between atoms: _44  and  _47
REMARK   21  A    between atoms: _47  and  _48
REMARK   22  A    between atoms: _59  and  _60
REMARK   23  A    between atoms: _65  and  _67
REMARK   24  A    between atoms: _67  and  _68
REMARK   25  A    between atoms: _67  and  _70
REMARK   26  A    between atoms: _70  and  _71
REMARK   27  A    between atoms: _73  and  _75
REMARK   28  A    between atoms: _75  and  _76
REMARK   29  A    between atoms: _75  and  _78
REMARK   30  A    between atoms: _78  and  _79
REMARK   31  A    between atoms: _84  and  _86
REMARK   32  A    between atoms: _86  and  _87
REMARK   33  A    between atoms: _86  and  _89
REMARK   34  A    between atoms: _89  and  _90
REMARK   35  A    between atoms: _95  and  _97
REMARK   36  A    between atoms: _97  and  _98
REMARK   37  A    between atoms: _101  and  _103
REMARK   38  A    between atoms: _103  and  _104
REMARK   39  A    between atoms: _103  and  _106
REMARK   40  A    between atoms: _106  and  _107
REMARK   41  A    between atoms: _109  and  _111
REMARK   42  A    between atoms: _111  and  _112
REMARK   43  A    between atoms: _111  and  _114
REMARK   44  A    between atoms: _114  and  _115
REMARK   45  A    between atoms: _120  and  _122
REMARK   46  A    between atoms: _122  and  _123
REMARK   47  A    between atoms: _122  and  _125
REMARK   48  A    between atoms: _125  and  _126
REMARK   49  A    between atoms: _132  and  _134
REMARK   50  A    between atoms: _134  and  _135
REMARK   51  A    between atoms: _134  and  _137
REMARK   52  A    between atoms: _137  and  _138
REMARK   53  A    between atoms: _138  and  _139
REMARK   54  A    between atoms: _141  and  _143
REMARK   55  A    between atoms: _143  and  _144
REMARK   56  A    between atoms: _143  and  _146
REMARK   57  A    between atoms: _146  and  _147
REMARK   58  A    between atoms: _150  and  _152
REMARK   59  A    between atoms: _152  and  _153
REMARK   60  A    between atoms: _152  and  _155
REMARK   61  A    between atoms: _155  and  _156
REMARK   62  A    between atoms: _158  and  _160
REMARK   63  A    between atoms: _160  and  _161
REMARK   64  A    between atoms: _160  and  _163
REMARK   65  A    between atoms: _163  and  _164
REMARK   66  A    between atoms: _167  and  _169
REMARK   67  A    between atoms: _169  and  _170
REMARK   68  A    between atoms: _169  and  _172
REMARK   69  A    between atoms: _175  and  _177
REMARK   70  A    between atoms: _177  and  _178
REMARK   71  A    between atoms: _177  and  _180
REMARK   72  A    between atoms: _183  and  _185
REMARK   73  A    between atoms: _185  and  _186
REMARK   74  A    between atoms: _185  and  _188
REMARK   75  A    between atoms: _188  and  _189
REMARK   76  A    between atoms: _194  and  _195
REMARK   77  A    between atoms: _197  and  _199
REMARK   78  A    between atoms: _199  and  _200
REMARK   79  A    between atoms: _199  and  _202
REMARK   80  A    between atoms: _205  and  _207
REMARK   81  A    between atoms: _207  and  _208
REMARK   82  A    between atoms: _207  and  _210
REMARK   83  A    between atoms: _213  and  _214
REMARK   84  A    between atoms: _219  and  _221
REMARK   85  A    between atoms: _221  and  _222
REMARK   86  A    between atoms: _221  and  _224
REMARK   87  A    between atoms: _224  and  _225
REMARK   88  A    between atoms: _230  and  _231
REMARK   89  A    between atoms: _233  and  _235
REMARK   90  A    between atoms: _235  and  _236
REMARK   91  A    between atoms: _238  and  _240
REMARK   92  A    between atoms: _240  and  _241
REMARK   93  A    between atoms: _240  and  _243
REMARK   94  A    between atoms: _243  and  _244
REMARK   95  A    between atoms: _254  and  _256
REMARK   96  A    between atoms: _256  and  _257
REMARK   97  A    between atoms: _256  and  _259
REMARK   98  A    between atoms: _259  and  _260
REMARK   99  A    between atoms: _263  and  _265
REMARK  100  A    between atoms: _265  and  _266
REMARK  101  A    between atoms: _265  and  _268
REMARK  102  A    between atoms: _268  and  _269
REMARK  103  A    between atoms: _272  and  _274
REMARK  104  A    between atoms: _274  and  _275
REMARK  105  A    between atoms: _274  and  _277
REMARK  106  A    between atoms: _277  and  _278
REMARK  107  A    between atoms: _288  and  _290
REMARK  108  A    between atoms: _290  and  _291
REMARK  109  A    between atoms: _290  and  _293
REMARK  110  A    between atoms: _293  and  _294
REMARK  111  A    between atoms: _294  and  _295
REMARK  112  A    between atoms: _297  and  _299
REMARK  113  A    between atoms: _299  and  _300
REMARK  114  A    between atoms: _299  and  _302
REMARK  115  A    between atoms: _302  and  _303
REMARK  116  A    between atoms: _305  and  _307
REMARK  117  A    between atoms: _307  and  _308
REMARK  118  A    between atoms: _307  and  _310
REMARK  119  A    between atoms: _310  and  _311
REMARK  120  A    between atoms: _316  and  _317
REMARK  121  A    between atoms: _319  and  _321
REMARK  122  A    between atoms: _321  and  _322
REMARK  123  A    between atoms: _321  and  _324
REMARK  124  A    between atoms: _324  and  _325
REMARK  125  A    between atoms: _330  and  _331
REMARK  126  A    between atoms: _333  and  _335
REMARK  127  A    between atoms: _335  and  _336
REMARK  128  A    between atoms: _335  and  _338
REMARK  129  A    between atoms: _338  and  _339
REMARK  130  A    between atoms: _339  and  _340
REMARK  131  A    between atoms: _342  and  _344
REMARK  132  A    between atoms: _344  and  _345
REMARK  133  A    between atoms: _344  and  _347
REMARK  134  A    between atoms: _347  and  _348
REMARK  135  A    between atoms: _353  and  _354
REMARK  136  A    between atoms: _356  and  _358
REMARK  137  A    between atoms: _358  and  _359
REMARK  138  A    between atoms: _358  and  _361
REMARK  139  A    between atoms: _361  and  _362
REMARK  140  A    between atoms: _362  and  _363
REMARK  141  A    between atoms: _365  and  _367
REMARK  142  A    between atoms: _367  and  _368
REMARK  143  A    between atoms: _367  and  _370
REMARK  144  A    between atoms: _370  and  _371
REMARK  145  A    between atoms: _376  and  _378
REMARK  146  A    between atoms: _378  and  _379
REMARK  147  A    between atoms: _382  and  _384
REMARK  148  A    between atoms: _384  and  _385
REMARK  149  A    between atoms: _384  and  _387
REMARK  150  A    between atoms: _387  and  _388
REMARK  151  A    between atoms: _393  and  _395
REMARK  152  A    between atoms: _395  and  _396
REMARK  153  A    between atoms: _398  and  _400
REMARK  154  A    between atoms: _400  and  _401
REMARK  155  A    between atoms: _400  and  _403
REMARK  156  A    between atoms: _403  and  _404
REMARK  157  A    between atoms: _407  and  _409
REMARK  158  A    between atoms: _409  and  _410
REMARK  159  A    between atoms: _412  and  _414
REMARK  160  A    between atoms: _414  and  _415
REMARK  161  A    between atoms: _414  and  _417
REMARK  162  A    between atoms: _417  and  _418
REMARK  163  A    between atoms: _428  and  _430
REMARK  164  A    between atoms: _430  and  _431
REMARK  165  A    between atoms: _433  and  _435
REMARK  166  A    between atoms: _435  and  _436
REMARK  167  A    between atoms: _439  and  _441
REMARK  168  A    between atoms: _441  and  _442
REMARK  169  A    between atoms: _441  and  _444
REMARK  170  A    between atoms: _444  and  _445
REMARK  171  A    between atoms: _445  and  _446
REMARK  172  A    between atoms: _448  and  _450
REMARK  173  A    between atoms: _450  and  _451
REMARK  174  A    between atoms: _454  and  _456
REMARK  175  A    between atoms: _456  and  _457
REMARK  176  A    between atoms: _456  and  _459
REMARK  177  A    between atoms: _459  and  _460
REMARK  178  A    between atoms: _466  and  _468
REMARK  179  A    between atoms: _468  and  _469
REMARK  180  A    between atoms: _468  and  _471
REMARK  181  A    between atoms: _473  and  _475
REMARK  182  A    between atoms: _475  and  _476
REMARK  183  A    between atoms: _478  and  _480
REMARK  184  A    between atoms: _480  and  _481
REMARK  185  A    between atoms: _480  and  _483
REMARK  186  A    between atoms: _483  and  _484
REMARK  187  A    between atoms: _494  and  _496
REMARK  188  A    between atoms: _496  and  _497
REMARK  189  A    between atoms: _500  and  _502
REMARK  190  A    between atoms: _502  and  _503
REMARK  191  A    between atoms: _502  and  _505
REMARK  192  A    between atoms: _505  and  _506
REMARK  193  A    between atoms: _511  and  _513
REMARK  194  A    between atoms: _513  and  _514
REMARK  195  A    between atoms: _513  and  _516
REMARK  196  A    between atoms: _516  and  _517
REMARK                            x       y       z     vdW  Elec       q    Type
REMARK                         _______ _______ _______ _____ _____    ______ ____
ROOT
ATOM      1  O   HOH     1     -36.299 -54.226  10.896  0.00  0.00    +0.000 OA
ENDROOT
TORSDOF 0
REMARK  Name = ../refined-set-2016/4pfu/4pfu_pocket.pdb
REMARK  196 active torsions:
REMARK  status: ('A' for Active; 'I' for Inactive)
REMARK    1  A    between atoms: _1  and  _3
REMARK    2  A    between atoms: _3  and  _4
REMARK    3  A    between atoms: _3  and  _6
REMARK    4  A    between atoms: _6  and  _7
REMARK    5  A    between atoms: _12  and  _13
REMARK    6  A    between atoms: _15  and  _17
REMARK    7  A    between atoms: _17  and  _18
REMARK    8  A    between atoms: _20  and  _22
REMARK    9  A    between atoms: _22  and  _23
REMARK   10  A    between atoms: _25  and  _27
REMARK   11  A    between atoms: _27  and  _28
REMARK   12  A    between atoms: _27  and  _30
REMARK   13  A    between atoms: _30  and  _31
REMARK   14  A    between atoms: _33  and  _35
REMARK   15  A    between atoms: _35  and  _36
REMARK   16  A    between atoms: _35  and  _38
REMARK   17  A    between atoms: _38  and  _39
REMARK   18  A    between atoms: _42  and  _44
REMARK   19  A    between atoms: _44  and  _45
REMARK   20  A    between atoms: _44  and  _47
REMARK   21  A    between atoms: _47  and  _48
REMARK   22  A    between atoms: _59  and  _60
REMARK   23  A    between atoms: _65  and  _67
REMARK   24  A    between atoms: _67  and  _68
REMARK   25  A    between atoms: _67  and  _70
REMARK   26  A    between atoms: _70  and  _71
REMARK   27  A    between atoms: _73  and  _75
REMARK   28  A    between atoms: _75  and  _76
REMARK   29  A    between atoms: _75  and  _78
REMARK   30  A    between atoms: _78  and  _79
REMARK   31  A    between atoms: _84  and  _86
REMARK   32  A    between atoms: _86  and  _87
REMARK   33  A    between atoms: _86  and  _89
REMARK   34  A    between atoms: _89  and  _90
REMARK   35  A    between atoms: _95  and  _97
REMARK   36  A    between atoms: _97  and  _98
REMARK   37  A    between atoms: _101  and  _103
REMARK   38  A    between atoms: _103  and  _104
REMARK   39  A    between atoms: _103  and  _106
REMARK   40  A    between atoms: _106  and  _107
REMARK   41  A    between atoms: _109  and  _111
REMARK   42  A    between atoms: _111  and  _112
REMARK   43  A    between atoms: _111  and  _114
REMARK   44  A    between atoms: _114  and  _115
REMARK   45  A    between atoms: _120  and  _122
REMARK   46  A    between atoms: _122  and  _123
REMARK   47  A    between atoms: _122  and  _125
REMARK   48  A    between atoms: _125  and  _126
REMARK   49  A    between atoms: _132  and  _134
REMARK   50  A    between atoms: _134  and  _135
REMARK   51  A    between atoms: _134  and  _137
REMARK   52  A    between atoms: _137  and  _138
REMARK   53  A    between atoms: _138  and  _139
REMARK   54  A    between atoms: _141  and  _143
REMARK   55  A    between atoms: _143  and  _144
REMARK   56  A    between atoms: _143  and  _146
REMARK   57  A    between atoms: _146  and  _147
REMARK   58  A    between atoms: _150  and  _152
REMARK   59  A    between atoms: _152  and  _153
REMARK   60  A    between atoms: _152  and  _155
REMARK   61  A    between atoms: _155  and  _156
REMARK   62  A    between atoms: _158  and  _160
REMARK   63  A    between atoms: _160  and  _161
REMARK   64  A    between atoms: _160  and  _163
REMARK   65  A    between atoms: _163  and  _164
REMARK   66  A    between atoms: _167  and  _169
REMARK   67  A    between atoms: _169  and  _170
REMARK   68  A    between atoms: _169  and  _172
REMARK   69  A    between atoms: _175  and  _177
REMARK   70  A    between atoms: _177  and  _178
REMARK   71  A    between atoms: _177  and  _180
REMARK   72  A    between atoms: _183  and  _185
REMARK   73  A    between atoms: _185  and  _186
REMARK   74  A    between atoms: _185  and  _188
REMARK   75  A    between atoms: _188  and  _189
REMARK   76  A    between atoms: _194  and  _195
REMARK   77  A    between atoms: _197  and  _199
REMARK   78  A    between atoms: _199  and  _200
REMARK   79  A    between atoms: _199  and  _202
REMARK   80  A    between atoms: _205  and  _207
REMARK   81  A    between atoms: _207  and  _208
REMARK   82  A    between atoms: _207  and  _210
REMARK   83  A    between atoms: _213  and  _214
REMARK   84  A    between atoms: _219  and  _221
REMARK   85  A    between atoms: _221  and  _222
REMARK   86  A    between atoms: _221  and  _224
REMARK   87  A    between atoms: _224  and  _225
REMARK   88  A    between atoms: _230  and  _231
REMARK   89  A    between atoms: _233  and  _235
REMARK   90  A    between atoms: _235  and  _236
REMARK   91  A    between atoms: _238  and  _240
REMARK   92  A    between atoms: _240  and  _241
REMARK   93  A    between atoms: _240  and  _243
REMARK   94  A    between atoms: _243  and  _244
REMARK   95  A    between atoms: _254  and  _256
REMARK   96  A    between atoms: _256  and  _257
REMARK   97  A    between atoms: _256  and  _259
REMARK   98  A    between atoms: _259  and  _260
REMARK   99  A    between atoms: _263  and  _265
REMARK  100  A    between atoms: _265  and  _266
REMARK  101  A    between atoms: _265  and  _268
REMARK  102  A    between atoms: _268  and  _269
REMARK  103  A    between atoms: _272  and  _274
REMARK  104  A    between atoms: _274  and  _275
REMARK  105  A    between atoms: _274  and  _277
REMARK  106  A    between atoms: _277  and  _278
REMARK  107  A    between atoms: _288  and  _290
REMARK  108  A    between atoms: _290  and  _291
REMARK  109  A    between atoms: _290  and  _293
REMARK  110  A    between atoms: _293  and  _294
REMARK  111  A    between atoms: _294  and  _295
REMARK  112  A    between atoms: _297  and  _299
REMARK  113  A    between atoms: _299  and  _300
REMARK  114  A    between atoms: _299  and  _302
REMARK  115  A    between atoms: _302  and  _303
REMARK  116  A    between atoms: _305  and  _307
REMARK  117  A    between atoms: _307  and  _308
REMARK  118  A    between atoms: _307  and  _310
REMARK  119  A    between atoms: _310  and  _311
REMARK  120  A    between atoms: _316  and  _317
REMARK  121  A    between atoms: _319  and  _321
REMARK  122  A    between atoms: _321  and  _322
REMARK  123  A    between atoms: _321  and  _324
REMARK  124  A    between atoms: _324  and  _325
REMARK  125  A    between atoms: _330  and  _331
REMARK  126  A    between atoms: _333  and  _335
REMARK  127  A    between atoms: _335  and  _336
REMARK  128  A    between atoms: _335  and  _338
REMARK  129  A    between atoms: _338  and  _339
REMARK  130  A    between atoms: _339  and  _340
REMARK  131  A    between atoms: _342  and  _344
REMARK  132  A    between atoms: _344  and  _345
REMARK  133  A    between atoms: _344  and  _347
REMARK  134  A    between atoms: _347  and  _348
REMARK  135  A    between atoms: _353  and  _354
REMARK  136  A    between atoms: _356  and  _358
REMARK  137  A    between atoms: _358  and  _359
REMARK  138  A    between atoms: _358  and  _361
REMARK  139  A    between atoms: _361  and  _362
REMARK  140  A    between atoms: _362  and  _363
REMARK  141  A    between atoms: _365  and  _367
REMARK  142  A    between atoms: _367  and  _368
REMARK  143  A    between atoms: _367  and  _370
REMARK  144  A    between atoms: _370  and  _371
REMARK  145  A    between atoms: _376  and  _378
REMARK  146  A    between atoms: _378  and  _379
REMARK  147  A    between atoms: _382  and  _384
REMARK  148  A    between atoms: _384  and  _385
REMARK  149  A    between atoms: _384  and  _387
REMARK  150  A    between atoms: _387  and  _388
REMARK  151  A    between atoms: _393  and  _395
REMARK  152  A    between atoms: _395  and  _396
REMARK  153  A    between atoms: _398  and  _400
REMARK  154  A    between atoms: _400  and  _401
REMARK  155  A    between atoms: _400  and  _403
REMARK  156  A    between atoms: _403  and  _404
REMARK  157  A    between atoms: _407  and  _409
REMARK  158  A    between atoms: _409  and  _410
REMARK  159  A    between atoms: _412  and  _414
REMARK  160  A    between atoms: _414  and  _415
REMARK  161  A    between atoms: _414  and  _417
REMARK  162  A    between atoms: _417  and  _418
REMARK  163  A    between atoms: _428  and  _430
REMARK  164  A    between atoms: _430  and  _431
REMARK  165  A    between atoms: _433  and  _435
REMARK  166  A    between atoms: _435  and  _436
REMARK  167  A    between atoms: _439  and  _441
REMARK  168  A    between atoms: _441  and  _442
REMARK  169  A    between atoms: _441  and  _444
REMARK  170  A    between atoms: _444  and  _445
REMARK  171  A    between atoms: _445  and  _446
REMARK  172  A    between atoms: _448  and  _450
REMARK  173  A    between atoms: _450  and  _451
REMARK  174  A    between atoms: _454  and  _456
REMARK  175  A    between atoms: _456  and  _457
REMARK  176  A    between atoms: _456  and  _459
REMARK  177  A    between atoms: _459  and  _460
REMARK  178  A    between atoms: _466  and  _468
REMARK  179  A    between atoms: _468  and  _469
REMARK  180  A    between atoms: _468  and  _471
REMARK  181  A    between atoms: _473  and  _475
REMARK  182  A    between atoms: _475  and  _476
REMARK  183  A    between atoms: _478  and  _480
REMARK  184  A    between atoms: _480  and  _481
REMARK  185  A    between atoms: _480  and  _483
REMARK  186  A    between atoms: _483  and  _484
REMARK  187  A    between atoms: _494  and  _496
REMARK  188  A    between atoms: _496  and  _497
REMARK  189  A    between atoms: _500  and  _502
REMARK  190  A    between atoms: _502  and  _503
REMARK  191  A    between atoms: _502  and  _505
REMARK  192  A    between atoms: _505  and  _506
REMARK  193  A    between atoms: _511  and  _513
REMARK  194  A    between atoms: _513  and  _514
REMARK  195  A    between atoms: _513  and  _516
REMARK  196  A    between atoms: _516  and  _517
REMARK                            x       y       z     vdW  Elec       q    Type
REMARK                         _______ _______ _______ _____ _____    ______ ____
ROOT
ATOM      1  O   HOH     1     -40.026 -47.702  10.032  0.00  0.00    +0.000 OA
ENDROOT
TORSDOF 0
REMARK  Name = ../refined-set-2016/4pfu/4pfu_pocket.pdb
REMARK  196 active torsions:
REMARK  status: ('A' for Active; 'I' for Inactive)
REMARK    1  A    between atoms: _1  and  _3
REMARK    2  A    between atoms: _3  and  _4
REMARK    3  A    between atoms: _3  and  _6
REMARK    4  A    between atoms: _6  and  _7
REMARK    5  A    between atoms: _12  and  _13
REMARK    6  A    between atoms: _15  and  _17
REMARK    7  A    between atoms: _17  and  _18
REMARK    8  A    between atoms: _20  and  _22
REMARK    9  A    between atoms: _22  and  _23
REMARK   10  A    between atoms: _25  and  _27
REMARK   11  A    between atoms: _27  and  _28
REMARK   12  A    between atoms: _27  and  _30
REMARK   13  A    between atoms: _30  and  _31
REMARK   14  A    between atoms: _33  and  _35
REMARK   15  A    between atoms: _35  and  _36
REMARK   16  A    between atoms: _35  and  _38
REMARK   17  A    between atoms: _38  and  _39
REMARK   18  A    between atoms: _42  and  _44
REMARK   19  A    between atoms: _44  and  _45
REMARK   20  A    between atoms: _44  and  _47
REMARK   21  A    between atoms: _47  and  _48
REMARK   22  A    between atoms: _59  and  _60
REMARK   23  A    between atoms: _65  and  _67
REMARK   24  A    between atoms: _67  and  _68
REMARK   25  A    between atoms: _67  and  _70
REMARK   26  A    between atoms: _70  and  _71
REMARK   27  A    between atoms: _73  and  _75
REMARK   28  A    between atoms: _75  and  _76
REMARK   29  A    between atoms: _75  and  _78
REMARK   30  A    between atoms: _78  and  _79
REMARK   31  A    between atoms: _84  and  _86
REMARK   32  A    between atoms: _86  and  _87
REMARK   33  A    between atoms: _86  and  _89
REMARK   34  A    between atoms: _89  and  _90
REMARK   35  A    between atoms: _95  and  _97
REMARK   36  A    between atoms: _97  and  _98
REMARK   37  A    between atoms: _101  and  _103
REMARK   38  A    between atoms: _103  and  _104
REMARK   39  A    between atoms: _103  and  _106
REMARK   40  A    between atoms: _106  and  _107
REMARK   41  A    between atoms: _109  and  _111
REMARK   42  A    between atoms: _111  and  _112
REMARK   43  A    between atoms: _111  and  _114
REMARK   44  A    between atoms: _114  and  _115
REMARK   45  A    between atoms: _120  and  _122
REMARK   46  A    between atoms: _122  and  _123
REMARK   47  A    between atoms: _122  and  _125
REMARK   48  A    between atoms: _125  and  _126
REMARK   49  A    between atoms: _132  and  _134
REMARK   50  A    between atoms: _134  and  _135
REMARK   51  A    between atoms: _134  and  _137
REMARK   52  A    between atoms: _137  and  _138
REMARK   53  A    between atoms: _138  and  _139
REMARK   54  A    between atoms: _141  and  _143
REMARK   55  A    between atoms: _143  and  _144
REMARK   56  A    between atoms: _143  and  _146
REMARK   57  A    between atoms: _146  and  _147
REMARK   58  A    between atoms: _150  and  _152
REMARK   59  A    between atoms: _152  and  _153
REMARK   60  A    between atoms: _152  and  _155
REMARK   61  A    between atoms: _155  and  _156
REMARK   62  A    between atoms: _158  and  _160
REMARK   63  A    between atoms: _160  and  _161
REMARK   64  A    between atoms: _160  and  _163
REMARK   65  A    between atoms: _163  and  _164
REMARK   66  A    between atoms: _167  and  _169
REMARK   67  A    between atoms: _169  and  _170
REMARK   68  A    between atoms: _169  and  _172
REMARK   69  A    between atoms: _175  and  _177
REMARK   70  A    between atoms: _177  and  _178
REMARK   71  A    between atoms: _177  and  _180
REMARK   72  A    between atoms: _183  and  _185
REMARK   73  A    between atoms: _185  and  _186
REMARK   74  A    between atoms: _185  and  _188
REMARK   75  A    between atoms: _188  and  _189
REMARK   76  A    between atoms: _194  and  _195
REMARK   77  A    between atoms: _197  and  _199
REMARK   78  A    between atoms: _199  and  _200
REMARK   79  A    between atoms: _199  and  _202
REMARK   80  A    between atoms: _205  and  _207
REMARK   81  A    between atoms: _207  and  _208
REMARK   82  A    between atoms: _207  and  _210
REMARK   83  A    between atoms: _213  and  _214
REMARK   84  A    between atoms: _219  and  _221
REMARK   85  A    between atoms: _221  and  _222
REMARK   86  A    between atoms: _221  and  _224
REMARK   87  A    between atoms: _224  and  _225
REMARK   88  A    between atoms: _230  and  _231
REMARK   89  A    between atoms: _233  and  _235
REMARK   90  A    between atoms: _235  and  _236
REMARK   91  A    between atoms: _238  and  _240
REMARK   92  A    between atoms: _240  and  _241
REMARK   93  A    between atoms: _240  and  _243
REMARK   94  A    between atoms: _243  and  _244
REMARK   95  A    between atoms: _254  and  _256
REMARK   96  A    between atoms: _256  and  _257
REMARK   97  A    between atoms: _256  and  _259
REMARK   98  A    between atoms: _259  and  _260
REMARK   99  A    between atoms: _263  and  _265
REMARK  100  A    between atoms: _265  and  _266
REMARK  101  A    between atoms: _265  and  _268
REMARK  102  A    between atoms: _268  and  _269
REMARK  103  A    between atoms: _272  and  _274
REMARK  104  A    between atoms: _274  and  _275
REMARK  105  A    between atoms: _274  and  _277
REMARK  106  A    between atoms: _277  and  _278
REMARK  107  A    between atoms: _288  and  _290
REMARK  108  A    between atoms: _290  and  _291
REMARK  109  A    between atoms: _290  and  _293
REMARK  110  A    between atoms: _293  and  _294
REMARK  111  A    between atoms: _294  and  _295
REMARK  112  A    between atoms: _297  and  _299
REMARK  113  A    between atoms: _299  and  _300
REMARK  114  A    between atoms: _299  and  _302
REMARK  115  A    between atoms: _302  and  _303
REMARK  116  A    between atoms: _305  and  _307
REMARK  117  A    between atoms: _307  and  _308
REMARK  118  A    between atoms: _307  and  _310
REMARK  119  A    between atoms: _310  and  _311
REMARK  120  A    between atoms: _316  and  _317
REMARK  121  A    between atoms: _319  and  _321
REMARK  122  A    between atoms: _321  and  _322
REMARK  123  A    between atoms: _321  and  _324
REMARK  124  A    between atoms: _324  and  _325
REMARK  125  A    between atoms: _330  and  _331
REMARK  126  A    between atoms: _333  and  _335
REMARK  127  A    between atoms: _335  and  _336
REMARK  128  A    between atoms: _335  and  _338
REMARK  129  A    between atoms: _338  and  _339
REMARK  130  A    between atoms: _339  and  _340
REMARK  131  A    between atoms: _342  and  _344
REMARK  132  A    between atoms: _344  and  _345
REMARK  133  A    between atoms: _344  and  _347
REMARK  134  A    between atoms: _347  and  _348
REMARK  135  A    between atoms: _353  and  _354
REMARK  136  A    between atoms: _356  and  _358
REMARK  137  A    between atoms: _358  and  _359
REMARK  138  A    between atoms: _358  and  _361
REMARK  139  A    between atoms: _361  and  _362
REMARK  140  A    between atoms: _362  and  _363
REMARK  141  A    between atoms: _365  and  _367
REMARK  142  A    between atoms: _367  and  _368
REMARK  143  A    between atoms: _367  and  _370
REMARK  144  A    between atoms: _370  and  _371
REMARK  145  A    between atoms: _376  and  _378
REMARK  146  A    between atoms: _378  and  _379
REMARK  147  A    between atoms: _382  and  _384
REMARK  148  A    between atoms: _384  and  _385
REMARK  149  A    between atoms: _384  and  _387
REMARK  150  A    between atoms: _387  and  _388
REMARK  151  A    between atoms: _393  and  _395
REMARK  152  A    between atoms: _395  and  _396
REMARK  153  A    between atoms: _398  and  _400
REMARK  154  A    between atoms: _400  and  _401
REMARK  155  A    between atoms: _400  and  _403
REMARK  156  A    between atoms: _403  and  _404
REMARK  157  A    between atoms: _407  and  _409
REMARK  158  A    between atoms: _409  and  _410
REMARK  159  A    between atoms: _412  and  _414
REMARK  160  A    between atoms: _414  and  _415
REMARK  161  A    between atoms: _414  and  _417
REMARK  162  A    between atoms: _417  and  _418
REMARK  163  A    between atoms: _428  and  _430
REMARK  164  A    between atoms: _430  and  _431
REMARK  165  A    between atoms: _433  and  _435
REMARK  166  A    between atoms: _435  and  _436
REMARK  167  A    between atoms: _439  and  _441
REMARK  168  A    between atoms: _441  and  _442
REMARK  169  A    between atoms: _441  and  _444
REMARK  170  A    between atoms: _444  and  _445
REMARK  171  A    between atoms: _445  and  _446
REMARK  172  A    between atoms: _448  and  _450
REMARK  173  A    between atoms: _450  and  _451
REMARK  174  A    between atoms: _454  and  _456
REMARK  175  A    between atoms: _456  and  _457
REMARK  176  A    between atoms: _456  and  _459
REMARK  177  A    between atoms: _459  and  _460
REMARK  178  A    between atoms: _466  and  _468
REMARK  179  A    between atoms: _468  and  _469
REMARK  180  A    between atoms: _468  and  _471
REMARK  181  A    between atoms: _473  and  _475
REMARK  182  A    between atoms: _475  and  _476
REMARK  183  A    between atoms: _478  and  _480
REMARK  184  A    between atoms: _480  and  _481
REMARK  185  A    between atoms: _480  and  _483
REMARK  186  A    between atoms: _483  and  _484
REMARK  187  A    between atoms: _494  and  _496
REMARK  188  A    between atoms: _496  and  _497
REMARK  189  A    between atoms: _500  and  _502
REMARK  190  A    between atoms: _502  and  _503
REMARK  191  A    between atoms: _502  and  _505
REMARK  192  A    between atoms: _505  and  _506
REMARK  193  A    between atoms: _511  and  _513
REMARK  194  A    between atoms: _513  and  _514
REMARK  195  A    between atoms: _513  and  _516
REMARK  196  A    between atoms: _516  and  _517
REMARK                            x       y       z     vdW  Elec       q    Type
REMARK                         _______ _______ _______ _____ _____    ______ ____
ROOT
ATOM      1  O   HOH     1     -28.497 -57.437  20.413  0.00  0.00    +0.000 OA
ENDROOT
TORSDOF 0
REMARK  Name = ../refined-set-2016/4pfu/4pfu_pocket.pdb
REMARK  196 active torsions:
REMARK  status: ('A' for Active; 'I' for Inactive)
REMARK    1  A    between atoms: _1  and  _3
REMARK    2  A    between atoms: _3  and  _4
REMARK    3  A    between atoms: _3  and  _6
REMARK    4  A    between atoms: _6  and  _7
REMARK    5  A    between atoms: _12  and  _13
REMARK    6  A    between atoms: _15  and  _17
REMARK    7  A    between atoms: _17  and  _18
REMARK    8  A    between atoms: _20  and  _22
REMARK    9  A    between atoms: _22  and  _23
REMARK   10  A    between atoms: _25  and  _27
REMARK   11  A    between atoms: _27  and  _28
REMARK   12  A    between atoms: _27  and  _30
REMARK   13  A    between atoms: _30  and  _31
REMARK   14  A    between atoms: _33  and  _35
REMARK   15  A    between atoms: _35  and  _36
REMARK   16  A    between atoms: _35  and  _38
REMARK   17  A    between atoms: _38  and  _39
REMARK   18  A    between atoms: _42  and  _44
REMARK   19  A    between atoms: _44  and  _45
REMARK   20  A    between atoms: _44  and  _47
REMARK   21  A    between atoms: _47  and  _48
REMARK   22  A    between atoms: _59  and  _60
REMARK   23  A    between atoms: _65  and  _67
REMARK   24  A    between atoms: _67  and  _68
REMARK   25  A    between atoms: _67  and  _70
REMARK   26  A    between atoms: _70  and  _71
REMARK   27  A    between atoms: _73  and  _75
REMARK   28  A    between atoms: _75  and  _76
REMARK   29  A    between atoms: _75  and  _78
REMARK   30  A    between atoms: _78  and  _79
REMARK   31  A    between atoms: _84  and  _86
REMARK   32  A    between atoms: _86  and  _87
REMARK   33  A    between atoms: _86  and  _89
REMARK   34  A    between atoms: _89  and  _90
REMARK   35  A    between atoms: _95  and  _97
REMARK   36  A    between atoms: _97  and  _98
REMARK   37  A    between atoms: _101  and  _103
REMARK   38  A    between atoms: _103  and  _104
REMARK   39  A    between atoms: _103  and  _106
REMARK   40  A    between atoms: _106  and  _107
REMARK   41  A    between atoms: _109  and  _111
REMARK   42  A    between atoms: _111  and  _112
REMARK   43  A    between atoms: _111  and  _114
REMARK   44  A    between atoms: _114  and  _115
REMARK   45  A    between atoms: _120  and  _122
REMARK   46  A    between atoms: _122  and  _123
REMARK   47  A    between atoms: _122  and  _125
REMARK   48  A    between atoms: _125  and  _126
REMARK   49  A    between atoms: _132  and  _134
REMARK   50  A    between atoms: _134  and  _135
REMARK   51  A    between atoms: _134  and  _137
REMARK   52  A    between atoms: _137  and  _138
REMARK   53  A    between atoms: _138  and  _139
REMARK   54  A    between atoms: _141  and  _143
REMARK   55  A    between atoms: _143  and  _144
REMARK   56  A    between atoms: _143  and  _146
REMARK   57  A    between atoms: _146  and  _147
REMARK   58  A    between atoms: _150  and  _152
REMARK   59  A    between atoms: _152  and  _153
REMARK   60  A    between atoms: _152  and  _155
REMARK   61  A    between atoms: _155  and  _156
REMARK   62  A    between atoms: _158  and  _160
REMARK   63  A    between atoms: _160  and  _161
REMARK   64  A    between atoms: _160  and  _163
REMARK   65  A    between atoms: _163  and  _164
REMARK   66  A    between atoms: _167  and  _169
REMARK   67  A    between atoms: _169  and  _170
REMARK   68  A    between atoms: _169  and  _172
REMARK   69  A    between atoms: _175  and  _177
REMARK   70  A    between atoms: _177  and  _178
REMARK   71  A    between atoms: _177  and  _180
REMARK   72  A    between atoms: _183  and  _185
REMARK   73  A    between atoms: _185  and  _186
REMARK   74  A    between atoms: _185  and  _188
REMARK   75  A    between atoms: _188  and  _189
REMARK   76  A    between atoms: _194  and  _195
REMARK   77  A    between atoms: _197  and  _199
REMARK   78  A    between atoms: _199  and  _200
REMARK   79  A    between atoms: _199  and  _202
REMARK   80  A    between atoms: _205  and  _207
REMARK   81  A    between atoms: _207  and  _208
REMARK   82  A    between atoms: _207  and  _210
REMARK   83  A    between atoms: _213  and  _214
REMARK   84  A    between atoms: _219  and  _221
REMARK   85  A    between atoms: _221  and  _222
REMARK   86  A    between atoms: _221  and  _224
REMARK   87  A    between atoms: _224  and  _225
REMARK   88  A    between atoms: _230  and  _231
REMARK   89  A    between atoms: _233  and  _235
REMARK   90  A    between atoms: _235  and  _236
REMARK   91  A    between atoms: _238  and  _240
REMARK   92  A    between atoms: _240  and  _241
REMARK   93  A    between atoms: _240  and  _243
REMARK   94  A    between atoms: _243  and  _244
REMARK   95  A    between atoms: _254  and  _256
REMARK   96  A    between atoms: _256  and  _257
REMARK   97  A    between atoms: _256  and  _259
REMARK   98  A    between atoms: _259  and  _260
REMARK   99  A    between atoms: _263  and  _265
REMARK  100  A    between atoms: _265  and  _266
REMARK  101  A    between atoms: _265  and  _268
REMARK  102  A    between atoms: _268  and  _269
REMARK  103  A    between atoms: _272  and  _274
REMARK  104  A    between atoms: _274  and  _275
REMARK  105  A    between atoms: _274  and  _277
REMARK  106  A    between atoms: _277  and  _278
REMARK  107  A    between atoms: _288  and  _290
REMARK  108  A    between atoms: _290  and  _291
REMARK  109  A    between atoms: _290  and  _293
REMARK  110  A    between atoms: _293  and  _294
REMARK  111  A    between atoms: _294  and  _295
REMARK  112  A    between atoms: _297  and  _299
REMARK  113  A    between atoms: _299  and  _300
REMARK  114  A    between atoms: _299  and  _302
REMARK  115  A    between atoms: _302  and  _303
REMARK  116  A    between atoms: _305  and  _307
REMARK  117  A    between atoms: _307  and  _308
REMARK  118  A    between atoms: _307  and  _310
REMARK  119  A    between atoms: _310  and  _311
REMARK  120  A    between atoms: _316  and  _317
REMARK  121  A    between atoms: _319  and  _321
REMARK  122  A    between atoms: _321  and  _322
REMARK  123  A    between atoms: _321  and  _324
REMARK  124  A    between atoms: _324  and  _325
REMARK  125  A    between atoms: _330  and  _331
REMARK  126  A    between atoms: _333  and  _335
REMARK  127  A    between atoms: _335  and  _336
REMARK  128  A    between atoms: _335  and  _338
REMARK  129  A    between atoms: _338  and  _339
REMARK  130  A    between atoms: _339  and  _340
REMARK  131  A    between atoms: _342  and  _344
REMARK  132  A    between atoms: _344  and  _345
REMARK  133  A    between atoms: _344  and  _347
REMARK  134  A    between atoms: _347  and  _348
REMARK  135  A    between atoms: _353  and  _354
REMARK  136  A    between atoms: _356  and  _358
REMARK  137  A    between atoms: _358  and  _359
REMARK  138  A    between atoms: _358  and  _361
REMARK  139  A    between atoms: _361  and  _362
REMARK  140  A    between atoms: _362  and  _363
REMARK  141  A    between atoms: _365  and  _367
REMARK  142  A    between atoms: _367  and  _368
REMARK  143  A    between atoms: _367  and  _370
REMARK  144  A    between atoms: _370  and  _371
REMARK  145  A    between atoms: _376  and  _378
REMARK  146  A    between atoms: _378  and  _379
REMARK  147  A    between atoms: _382  and  _384
REMARK  148  A    between atoms: _384  and  _385
REMARK  149  A    between atoms: _384  and  _387
REMARK  150  A    between atoms: _387  and  _388
REMARK  151  A    between atoms: _393  and  _395
REMARK  152  A    between atoms: _395  and  _396
REMARK  153  A    between atoms: _398  and  _400
REMARK  154  A    between atoms: _400  and  _401
REMARK  155  A    between atoms: _400  and  _403
REMARK  156  A    between atoms: _403  and  _404
REMARK  157  A    between atoms: _407  and  _409
REMARK  158  A    between atoms: _409  and  _410
REMARK  159  A    between atoms: _412  and  _414
REMARK  160  A    between atoms: _414  and  _415
REMARK  161  A    between atoms: _414  and  _417
REMARK  162  A    between atoms: _417  and  _418
REMARK  163  A    between atoms: _428  and  _430
REMARK  164  A    between atoms: _430  and  _431
REMARK  165  A    between atoms: _433  and  _435
REMARK  166  A    between atoms: _435  and  _436
REMARK  167  A    between atoms: _439  and  _441
REMARK  168  A    between atoms: _441  and  _442
REMARK  169  A    between atoms: _441  and  _444
REMARK  170  A    between atoms: _444  and  _445
REMARK  171  A    between atoms: _445  and  _446
REMARK  172  A    between atoms: _448  and  _450
REMARK  173  A    between atoms: _450  and  _451
REMARK  174  A    between atoms: _454  and  _456
REMARK  175  A    between atoms: _456  and  _457
REMARK  176  A    between atoms: _456  and  _459
REMARK  177  A    between atoms: _459  and  _460
REMARK  178  A    between atoms: _466  and  _468
REMARK  179  A    between atoms: _468  and  _469
REMARK  180  A    between atoms: _468  and  _471
REMARK  181  A    between atoms: _473  and  _475
REMARK  182  A    between atoms: _475  and  _476
REMARK  183  A    between atoms: _478  and  _480
REMARK  184  A    between atoms: _480  and  _481
REMARK  185  A    between atoms: _480  and  _483
REMARK  186  A    between atoms: _483  and  _484
REMARK  187  A    between atoms: _494  and  _496
REMARK  188  A    between atoms: _496  and  _497
REMARK  189  A    between atoms: _500  and  _502
REMARK  190  A    between atoms: _502  and  _503
REMARK  191  A    between atoms: _502  and  _505
REMARK  192  A    between atoms: _505  and  _506
REMARK  193  A    between atoms: _511  and  _513
REMARK  194  A    between atoms: _513  and  _514
REMARK  195  A    between atoms: _513  and  _516
REMARK  196  A    between atoms: _516  and  _517
REMARK                            x       y       z     vdW  Elec       q    Type
REMARK                         _______ _______ _______ _____ _____    ______ ____
ROOT
ATOM      1  O   HOH     1     -34.404 -62.399  24.157  0.00  0.00    +0.000 OA
ENDROOT
TORSDOF 0
REMARK  Name = ../refined-set-2016/4pfu/4pfu_pocket.pdb
REMARK  196 active torsions:
REMARK  status: ('A' for Active; 'I' for Inactive)
REMARK    1  A    between atoms: _1  and  _3
REMARK    2  A    between atoms: _3  and  _4
REMARK    3  A    between atoms: _3  and  _6
REMARK    4  A    between atoms: _6  and  _7
REMARK    5  A    between atoms: _12  and  _13
REMARK    6  A    between atoms: _15  and  _17
REMARK    7  A    between atoms: _17  and  _18
REMARK    8  A    between atoms: _20  and  _22
REMARK    9  A    between atoms: _22  and  _23
REMARK   10  A    between atoms: _25  and  _27
REMARK   11  A    between atoms: _27  and  _28
REMARK   12  A    between atoms: _27  and  _30
REMARK   13  A    between atoms: _30  and  _31
REMARK   14  A    between atoms: _33  and  _35
REMARK   15  A    between atoms: _35  and  _36
REMARK   16  A    between atoms: _35  and  _38
REMARK   17  A    between atoms: _38  and  _39
REMARK   18  A    between atoms: _42  and  _44
REMARK   19  A    between atoms: _44  and  _45
REMARK   20  A    between atoms: _44  and  _47
REMARK   21  A    between atoms: _47  and  _48
REMARK   22  A    between atoms: _59  and  _60
REMARK   23  A    between atoms: _65  and  _67
REMARK   24  A    between atoms: _67  and  _68
REMARK   25  A    between atoms: _67  and  _70
REMARK   26  A    between atoms: _70  and  _71
REMARK   27  A    between atoms: _73  and  _75
REMARK   28  A    between atoms: _75  and  _76
REMARK   29  A    between atoms: _75  and  _78
REMARK   30  A    between atoms: _78  and  _79
REMARK   31  A    between atoms: _84  and  _86
REMARK   32  A    between atoms: _86  and  _87
REMARK   33  A    between atoms: _86  and  _89
REMARK   34  A    between atoms: _89  and  _90
REMARK   35  A    between atoms: _95  and  _97
REMARK   36  A    between atoms: _97  and  _98
REMARK   37  A    between atoms: _101  and  _103
REMARK   38  A    between atoms: _103  and  _104
REMARK   39  A    between atoms: _103  and  _106
REMARK   40  A    between atoms: _106  and  _107
REMARK   41  A    between atoms: _109  and  _111
REMARK   42  A    between atoms: _111  and  _112
REMARK   43  A    between atoms: _111  and  _114
REMARK   44  A    between atoms: _114  and  _115
REMARK   45  A    between atoms: _120  and  _122
REMARK   46  A    between atoms: _122  and  _123
REMARK   47  A    between atoms: _122  and  _125
REMARK   48  A    between atoms: _125  and  _126
REMARK   49  A    between atoms: _132  and  _134
REMARK   50  A    between atoms: _134  and  _135
REMARK   51  A    between atoms: _134  and  _137
REMARK   52  A    between atoms: _137  and  _138
REMARK   53  A    between atoms: _138  and  _139
REMARK   54  A    between atoms: _141  and  _143
REMARK   55  A    between atoms: _143  and  _144
REMARK   56  A    between atoms: _143  and  _146
REMARK   57  A    between atoms: _146  and  _147
REMARK   58  A    between atoms: _150  and  _152
REMARK   59  A    between atoms: _152  and  _153
REMARK   60  A    between atoms: _152  and  _155
REMARK   61  A    between atoms: _155  and  _156
REMARK   62  A    between atoms: _158  and  _160
REMARK   63  A    between atoms: _160  and  _161
REMARK   64  A    between atoms: _160  and  _163
REMARK   65  A    between atoms: _163  and  _164
REMARK   66  A    between atoms: _167  and  _169
REMARK   67  A    between atoms: _169  and  _170
REMARK   68  A    between atoms: _169  and  _172
REMARK   69  A    between atoms: _175  and  _177
REMARK   70  A    between atoms: _177  and  _178
REMARK   71  A    between atoms: _177  and  _180
REMARK   72  A    between atoms: _183  and  _185
REMARK   73  A    between atoms: _185  and  _186
REMARK   74  A    between atoms: _185  and  _188
REMARK   75  A    between atoms: _188  and  _189
REMARK   76  A    between atoms: _194  and  _195
REMARK   77  A    between atoms: _197  and  _199
REMARK   78  A    between atoms: _199  and  _200
REMARK   79  A    between atoms: _199  and  _202
REMARK   80  A    between atoms: _205  and  _207
REMARK   81  A    between atoms: _207  and  _208
REMARK   82  A    between atoms: _207  and  _210
REMARK   83  A    between atoms: _213  and  _214
REMARK   84  A    between atoms: _219  and  _221
REMARK   85  A    between atoms: _221  and  _222
REMARK   86  A    between atoms: _221  and  _224
REMARK   87  A    between atoms: _224  and  _225
REMARK   88  A    between atoms: _230  and  _231
REMARK   89  A    between atoms: _233  and  _235
REMARK   90  A    between atoms: _235  and  _236
REMARK   91  A    between atoms: _238  and  _240
REMARK   92  A    between atoms: _240  and  _241
REMARK   93  A    between atoms: _240  and  _243
REMARK   94  A    between atoms: _243  and  _244
REMARK   95  A    between atoms: _254  and  _256
REMARK   96  A    between atoms: _256  and  _257
REMARK   97  A    between atoms: _256  and  _259
REMARK   98  A    between atoms: _259  and  _260
REMARK   99  A    between atoms: _263  and  _265
REMARK  100  A    between atoms: _265  and  _266
REMARK  101  A    between atoms: _265  and  _268
REMARK  102  A    between atoms: _268  and  _269
REMARK  103  A    between atoms: _272  and  _274
REMARK  104  A    between atoms: _274  and  _275
REMARK  105  A    between atoms: _274  and  _277
REMARK  106  A    between atoms: _277  and  _278
REMARK  107  A    between atoms: _288  and  _290
REMARK  108  A    between atoms: _290  and  _291
REMARK  109  A    between atoms: _290  and  _293
REMARK  110  A    between atoms: _293  and  _294
REMARK  111  A    between atoms: _294  and  _295
REMARK  112  A    between atoms: _297  and  _299
REMARK  113  A    between atoms: _299  and  _300
REMARK  114  A    between atoms: _299  and  _302
REMARK  115  A    between atoms: _302  and  _303
REMARK  116  A    between atoms: _305  and  _307
REMARK  117  A    between atoms: _307  and  _308
REMARK  118  A    between atoms: _307  and  _310
REMARK  119  A    between atoms: _310  and  _311
REMARK  120  A    between atoms: _316  and  _317
REMARK  121  A    between atoms: _319  and  _321
REMARK  122  A    between atoms: _321  and  _322
REMARK  123  A    between atoms: _321  and  _324
REMARK  124  A    between atoms: _324  and  _325
REMARK  125  A    between atoms: _330  and  _331
REMARK  126  A    between atoms: _333  and  _335
REMARK  127  A    between atoms: _335  and  _336
REMARK  128  A    between atoms: _335  and  _338
REMARK  129  A    between atoms: _338  and  _339
REMARK  130  A    between atoms: _339  and  _340
REMARK  131  A    between atoms: _342  and  _344
REMARK  132  A    between atoms: _344  and  _345
REMARK  133  A    between atoms: _344  and  _347
REMARK  134  A    between atoms: _347  and  _348
REMARK  135  A    between atoms: _353  and  _354
REMARK  136  A    between atoms: _356  and  _358
REMARK  137  A    between atoms: _358  and  _359
REMARK  138  A    between atoms: _358  and  _361
REMARK  139  A    between atoms: _361  and  _362
REMARK  140  A    between atoms: _362  and  _363
REMARK  141  A    between atoms: _365  and  _367
REMARK  142  A    between atoms: _367  and  _368
REMARK  143  A    between atoms: _367  and  _370
REMARK  144  A    between atoms: _370  and  _371
REMARK  145  A    between atoms: _376  and  _378
REMARK  146  A    between atoms: _378  and  _379
REMARK  147  A    between atoms: _382  and  _384
REMARK  148  A    between atoms: _384  and  _385
REMARK  149  A    between atoms: _384  and  _387
REMARK  150  A    between atoms: _387  and  _388
REMARK  151  A    between atoms: _393  and  _395
REMARK  152  A    between atoms: _395  and  _396
REMARK  153  A    between atoms: _398  and  _400
REMARK  154  A    between atoms: _400  and  _401
REMARK  155  A    between atoms: _400  and  _403
REMARK  156  A    between atoms: _403  and  _404
REMARK  157  A    between atoms: _407  and  _409
REMARK  158  A    between atoms: _409  and  _410
REMARK  159  A    between atoms: _412  and  _414
REMARK  160  A    between atoms: _414  and  _415
REMARK  161  A    between atoms: _414  and  _417
REMARK  162  A    between atoms: _417  and  _418
REMARK  163  A    between atoms: _428  and  _430
REMARK  164  A    between atoms: _430  and  _431
REMARK  165  A    between atoms: _433  and  _435
REMARK  166  A    between atoms: _435  and  _436
REMARK  167  A    between atoms: _439  and  _441
REMARK  168  A    between atoms: _441  and  _442
REMARK  169  A    between atoms: _441  and  _444
REMARK  170  A    between atoms: _444  and  _445
REMARK  171  A    between atoms: _445  and  _446
REMARK  172  A    between atoms: _448  and  _450
REMARK  173  A    between atoms: _450  and  _451
REMARK  174  A    between atoms: _454  and  _456
REMARK  175  A    between atoms: _456  and  _457
REMARK  176  A    between atoms: _456  and  _459
REMARK  177  A    between atoms: _459  and  _460
REMARK  178  A    between atoms: _466  and  _468
REMARK  179  A    between atoms: _468  and  _469
REMARK  180  A    between atoms: _468  and  _471
REMARK  181  A    between atoms: _473  and  _475
REMARK  182  A    between atoms: _475  and  _476
REMARK  183  A    between atoms: _478  and  _480
REMARK  184  A    between atoms: _480  and  _481
REMARK  185  A    between atoms: _480  and  _483
REMARK  186  A    between atoms: _483  and  _484
REMARK  187  A    between atoms: _494  and  _496
REMARK  188  A    between atoms: _496  and  _497
REMARK  189  A    between atoms: _500  and  _502
REMARK  190  A    between atoms: _502  and  _503
REMARK  191  A    between atoms: _502  and  _505
REMARK  192  A    between atoms: _505  and  _506
REMARK  193  A    between atoms: _511  and  _513
REMARK  194  A    between atoms: _513  and  _514
REMARK  195  A    between atoms: _513  and  _516
REMARK  196  A    between atoms: _516  and  _517
REMARK                            x       y       z     vdW  Elec       q    Type
REMARK                         _______ _______ _______ _____ _____    ______ ____
ROOT
ATOM      1  O   HOH     1     -34.685 -56.443  21.657  0.00  0.00    +0.000 OA
ENDROOT
TORSDOF 0
REMARK  Name = ../refined-set-2016/4pfu/4pfu_pocket.pdb
REMARK  196 active torsions:
REMARK  status: ('A' for Active; 'I' for Inactive)
REMARK    1  A    between atoms: _1  and  _3
REMARK    2  A    between atoms: _3  and  _4
REMARK    3  A    between atoms: _3  and  _6
REMARK    4  A    between atoms: _6  and  _7
REMARK    5  A    between atoms: _12  and  _13
REMARK    6  A    between atoms: _15  and  _17
REMARK    7  A    between atoms: _17  and  _18
REMARK    8  A    between atoms: _20  and  _22
REMARK    9  A    between atoms: _22  and  _23
REMARK   10  A    between atoms: _25  and  _27
REMARK   11  A    between atoms: _27  and  _28
REMARK   12  A    between atoms: _27  and  _30
REMARK   13  A    between atoms: _30  and  _31
REMARK   14  A    between atoms: _33  and  _35
REMARK   15  A    between atoms: _35  and  _36
REMARK   16  A    between atoms: _35  and  _38
REMARK   17  A    between atoms: _38  and  _39
REMARK   18  A    between atoms: _42  and  _44
REMARK   19  A    between atoms: _44  and  _45
REMARK   20  A    between atoms: _44  and  _47
REMARK   21  A    between atoms: _47  and  _48
REMARK   22  A    between atoms: _59  and  _60
REMARK   23  A    between atoms: _65  and  _67
REMARK   24  A    between atoms: _67  and  _68
REMARK   25  A    between atoms: _67  and  _70
REMARK   26  A    between atoms: _70  and  _71
REMARK   27  A    between atoms: _73  and  _75
REMARK   28  A    between atoms: _75  and  _76
REMARK   29  A    between atoms: _75  and  _78
REMARK   30  A    between atoms: _78  and  _79
REMARK   31  A    between atoms: _84  and  _86
REMARK   32  A    between atoms: _86  and  _87
REMARK   33  A    between atoms: _86  and  _89
REMARK   34  A    between atoms: _89  and  _90
REMARK   35  A    between atoms: _95  and  _97
REMARK   36  A    between atoms: _97  and  _98
REMARK   37  A    between atoms: _101  and  _103
REMARK   38  A    between atoms: _103  and  _104
REMARK   39  A    between atoms: _103  and  _106
REMARK   40  A    between atoms: _106  and  _107
REMARK   41  A    between atoms: _109  and  _111
REMARK   42  A    between atoms: _111  and  _112
REMARK   43  A    between atoms: _111  and  _114
REMARK   44  A    between atoms: _114  and  _115
REMARK   45  A    between atoms: _120  and  _122
REMARK   46  A    between atoms: _122  and  _123
REMARK   47  A    between atoms: _122  and  _125
REMARK   48  A    between atoms: _125  and  _126
REMARK   49  A    between atoms: _132  and  _134
REMARK   50  A    between atoms: _134  and  _135
REMARK   51  A    between atoms: _134  and  _137
REMARK   52  A    between atoms: _137  and  _138
REMARK   53  A    between atoms: _138  and  _139
REMARK   54  A    between atoms: _141  and  _143
REMARK   55  A    between atoms: _143  and  _144
REMARK   56  A    between atoms: _143  and  _146
REMARK   57  A    between atoms: _146  and  _147
REMARK   58  A    between atoms: _150  and  _152
REMARK   59  A    between atoms: _152  and  _153
REMARK   60  A    between atoms: _152  and  _155
REMARK   61  A    between atoms: _155  and  _156
REMARK   62  A    between atoms: _158  and  _160
REMARK   63  A    between atoms: _160  and  _161
REMARK   64  A    between atoms: _160  and  _163
REMARK   65  A    between atoms: _163  and  _164
REMARK   66  A    between atoms: _167  and  _169
REMARK   67  A    between atoms: _169  and  _170
REMARK   68  A    between atoms: _169  and  _172
REMARK   69  A    between atoms: _175  and  _177
REMARK   70  A    between atoms: _177  and  _178
REMARK   71  A    between atoms: _177  and  _180
REMARK   72  A    between atoms: _183  and  _185
REMARK   73  A    between atoms: _185  and  _186
REMARK   74  A    between atoms: _185  and  _188
REMARK   75  A    between atoms: _188  and  _189
REMARK   76  A    between atoms: _194  and  _195
REMARK   77  A    between atoms: _197  and  _199
REMARK   78  A    between atoms: _199  and  _200
REMARK   79  A    between atoms: _199  and  _202
REMARK   80  A    between atoms: _205  and  _207
REMARK   81  A    between atoms: _207  and  _208
REMARK   82  A    between atoms: _207  and  _210
REMARK   83  A    between atoms: _213  and  _214
REMARK   84  A    between atoms: _219  and  _221
REMARK   85  A    between atoms: _221  and  _222
REMARK   86  A    between atoms: _221  and  _224
REMARK   87  A    between atoms: _224  and  _225
REMARK   88  A    between atoms: _230  and  _231
REMARK   89  A    between atoms: _233  and  _235
REMARK   90  A    between atoms: _235  and  _236
REMARK   91  A    between atoms: _238  and  _240
REMARK   92  A    between atoms: _240  and  _241
REMARK   93  A    between atoms: _240  and  _243
REMARK   94  A    between atoms: _243  and  _244
REMARK   95  A    between atoms: _254  and  _256
REMARK   96  A    between atoms: _256  and  _257
REMARK   97  A    between atoms: _256  and  _259
REMARK   98  A    between atoms: _259  and  _260
REMARK   99  A    between atoms: _263  and  _265
REMARK  100  A    between atoms: _265  and  _266
REMARK  101  A    between atoms: _265  and  _268
REMARK  102  A    between atoms: _268  and  _269
REMARK  103  A    between atoms: _272  and  _274
REMARK  104  A    between atoms: _274  and  _275
REMARK  105  A    between atoms: _274  and  _277
REMARK  106  A    between atoms: _277  and  _278
REMARK  107  A    between atoms: _288  and  _290
REMARK  108  A    between atoms: _290  and  _291
REMARK  109  A    between atoms: _290  and  _293
REMARK  110  A    between atoms: _293  and  _294
REMARK  111  A    between atoms: _294  and  _295
REMARK  112  A    between atoms: _297  and  _299
REMARK  113  A    between atoms: _299  and  _300
REMARK  114  A    between atoms: _299  and  _302
REMARK  115  A    between atoms: _302  and  _303
REMARK  116  A    between atoms: _305  and  _307
REMARK  117  A    between atoms: _307  and  _308
REMARK  118  A    between atoms: _307  and  _310
REMARK  119  A    between atoms: _310  and  _311
REMARK  120  A    between atoms: _316  and  _317
REMARK  121  A    between atoms: _319  and  _321
REMARK  122  A    between atoms: _321  and  _322
REMARK  123  A    between atoms: _321  and  _324
REMARK  124  A    between atoms: _324  and  _325
REMARK  125  A    between atoms: _330  and  _331
REMARK  126  A    between atoms: _333  and  _335
REMARK  127  A    between atoms: _335  and  _336
REMARK  128  A    between atoms: _335  and  _338
REMARK  129  A    between atoms: _338  and  _339
REMARK  130  A    between atoms: _339  and  _340
REMARK  131  A    between atoms: _342  and  _344
REMARK  132  A    between atoms: _344  and  _345
REMARK  133  A    between atoms: _344  and  _347
REMARK  134  A    between atoms: _347  and  _348
REMARK  135  A    between atoms: _353  and  _354
REMARK  136  A    between atoms: _356  and  _358
REMARK  137  A    between atoms: _358  and  _359
REMARK  138  A    between atoms: _358  and  _361
REMARK  139  A    between atoms: _361  and  _362
REMARK  140  A    between atoms: _362  and  _363
REMARK  141  A    between atoms: _365  and  _367
REMARK  142  A    between atoms: _367  and  _368
REMARK  143  A    between atoms: _367  and  _370
REMARK  144  A    between atoms: _370  and  _371
REMARK  145  A    between atoms: _376  and  _378
REMARK  146  A    between atoms: _378  and  _379
REMARK  147  A    between atoms: _382  and  _384
REMARK  148  A    between atoms: _384  and  _385
REMARK  149  A    between atoms: _384  and  _387
REMARK  150  A    between atoms: _387  and  _388
REMARK  151  A    between atoms: _393  and  _395
REMARK  152  A    between atoms: _395  and  _396
REMARK  153  A    between atoms: _398  and  _400
REMARK  154  A    between atoms: _400  and  _401
REMARK  155  A    between atoms: _400  and  _403
REMARK  156  A    between atoms: _403  and  _404
REMARK  157  A    between atoms: _407  and  _409
REMARK  158  A    between atoms: _409  and  _410
REMARK  159  A    between atoms: _412  and  _414
REMARK  160  A    between atoms: _414  and  _415
REMARK  161  A    between atoms: _414  and  _417
REMARK  162  A    between atoms: _417  and  _418
REMARK  163  A    between atoms: _428  and  _430
REMARK  164  A    between atoms: _430  and  _431
REMARK  165  A    between atoms: _433  and  _435
REMARK  166  A    between atoms: _435  and  _436
REMARK  167  A    between atoms: _439  and  _441
REMARK  168  A    between atoms: _441  and  _442
REMARK  169  A    between atoms: _441  and  _444
REMARK  170  A    between atoms: _444  and  _445
REMARK  171  A    between atoms: _445  and  _446
REMARK  172  A    between atoms: _448  and  _450
REMARK  173  A    between atoms: _450  and  _451
REMARK  174  A    between atoms: _454  and  _456
REMARK  175  A    between atoms: _456  and  _457
REMARK  176  A    between atoms: _456  and  _459
REMARK  177  A    between atoms: _459  and  _460
REMARK  178  A    between atoms: _466  and  _468
REMARK  179  A    between atoms: _468  and  _469
REMARK  180  A    between atoms: _468  and  _471
REMARK  181  A    between atoms: _473  and  _475
REMARK  182  A    between atoms: _475  and  _476
REMARK  183  A    between atoms: _478  and  _480
REMARK  184  A    between atoms: _480  and  _481
REMARK  185  A    between atoms: _480  and  _483
REMARK  186  A    between atoms: _483  and  _484
REMARK  187  A    between atoms: _494  and  _496
REMARK  188  A    between atoms: _496  and  _497
REMARK  189  A    between atoms: _500  and  _502
REMARK  190  A    between atoms: _502  and  _503
REMARK  191  A    between atoms: _502  and  _505
REMARK  192  A    between atoms: _505  and  _506
REMARK  193  A    between atoms: _511  and  _513
REMARK  194  A    between atoms: _513  and  _514
REMARK  195  A    between atoms: _513  and  _516
REMARK  196  A    between atoms: _516  and  _517
REMARK                            x       y       z     vdW  Elec       q    Type
REMARK                         _______ _______ _______ _____ _____    ______ ____
ROOT
ATOM      1  O   HOH     1     -42.457 -58.031  21.472  0.00  0.00    +0.000 OA
ENDROOT
TORSDOF 0
REMARK  Name = ../refined-set-2016/4pfu/4pfu_pocket.pdb
REMARK  196 active torsions:
REMARK  status: ('A' for Active; 'I' for Inactive)
REMARK    1  A    between atoms: _1  and  _3
REMARK    2  A    between atoms: _3  and  _4
REMARK    3  A    between atoms: _3  and  _6
REMARK    4  A    between atoms: _6  and  _7
REMARK    5  A    between atoms: _12  and  _13
REMARK    6  A    between atoms: _15  and  _17
REMARK    7  A    between atoms: _17  and  _18
REMARK    8  A    between atoms: _20  and  _22
REMARK    9  A    between atoms: _22  and  _23
REMARK   10  A    between atoms: _25  and  _27
REMARK   11  A    between atoms: _27  and  _28
REMARK   12  A    between atoms: _27  and  _30
REMARK   13  A    between atoms: _30  and  _31
REMARK   14  A    between atoms: _33  and  _35
REMARK   15  A    between atoms: _35  and  _36
REMARK   16  A    between atoms: _35  and  _38
REMARK   17  A    between atoms: _38  and  _39
REMARK   18  A    between atoms: _42  and  _44
REMARK   19  A    between atoms: _44  and  _45
REMARK   20  A    between atoms: _44  and  _47
REMARK   21  A    between atoms: _47  and  _48
REMARK   22  A    between atoms: _59  and  _60
REMARK   23  A    between atoms: _65  and  _67
REMARK   24  A    between atoms: _67  and  _68
REMARK   25  A    between atoms: _67  and  _70
REMARK   26  A    between atoms: _70  and  _71
REMARK   27  A    between atoms: _73  and  _75
REMARK   28  A    between atoms: _75  and  _76
REMARK   29  A    between atoms: _75  and  _78
REMARK   30  A    between atoms: _78  and  _79
REMARK   31  A    between atoms: _84  and  _86
REMARK   32  A    between atoms: _86  and  _87
REMARK   33  A    between atoms: _86  and  _89
REMARK   34  A    between atoms: _89  and  _90
REMARK   35  A    between atoms: _95  and  _97
REMARK   36  A    between atoms: _97  and  _98
REMARK   37  A    between atoms: _101  and  _103
REMARK   38  A    between atoms: _103  and  _104
REMARK   39  A    between atoms: _103  and  _106
REMARK   40  A    between atoms: _106  and  _107
REMARK   41  A    between atoms: _109  and  _111
REMARK   42  A    between atoms: _111  and  _112
REMARK   43  A    between atoms: _111  and  _114
REMARK   44  A    between atoms: _114  and  _115
REMARK   45  A    between atoms: _120  and  _122
REMARK   46  A    between atoms: _122  and  _123
REMARK   47  A    between atoms: _122  and  _125
REMARK   48  A    between atoms: _125  and  _126
REMARK   49  A    between atoms: _132  and  _134
REMARK   50  A    between atoms: _134  and  _135
REMARK   51  A    between atoms: _134  and  _137
REMARK   52  A    between atoms: _137  and  _138
REMARK   53  A    between atoms: _138  and  _139
REMARK   54  A    between atoms: _141  and  _143
REMARK   55  A    between atoms: _143  and  _144
REMARK   56  A    between atoms: _143  and  _146
REMARK   57  A    between atoms: _146  and  _147
REMARK   58  A    between atoms: _150  and  _152
REMARK   59  A    between atoms: _152  and  _153
REMARK   60  A    between atoms: _152  and  _155
REMARK   61  A    between atoms: _155  and  _156
REMARK   62  A    between atoms: _158  and  _160
REMARK   63  A    between atoms: _160  and  _161
REMARK   64  A    between atoms: _160  and  _163
REMARK   65  A    between atoms: _163  and  _164
REMARK   66  A    between atoms: _167  and  _169
REMARK   67  A    between atoms: _169  and  _170
REMARK   68  A    between atoms: _169  and  _172
REMARK   69  A    between atoms: _175  and  _177
REMARK   70  A    between atoms: _177  and  _178
REMARK   71  A    between atoms: _177  and  _180
REMARK   72  A    between atoms: _183  and  _185
REMARK   73  A    between atoms: _185  and  _186
REMARK   74  A    between atoms: _185  and  _188
REMARK   75  A    between atoms: _188  and  _189
REMARK   76  A    between atoms: _194  and  _195
REMARK   77  A    between atoms: _197  and  _199
REMARK   78  A    between atoms: _199  and  _200
REMARK   79  A    between atoms: _199  and  _202
REMARK   80  A    between atoms: _205  and  _207
REMARK   81  A    between atoms: _207  and  _208
REMARK   82  A    between atoms: _207  and  _210
REMARK   83  A    between atoms: _213  and  _214
REMARK   84  A    between atoms: _219  and  _221
REMARK   85  A    between atoms: _221  and  _222
REMARK   86  A    between atoms: _221  and  _224
REMARK   87  A    between atoms: _224  and  _225
REMARK   88  A    between atoms: _230  and  _231
REMARK   89  A    between atoms: _233  and  _235
REMARK   90  A    between atoms: _235  and  _236
REMARK   91  A    between atoms: _238  and  _240
REMARK   92  A    between atoms: _240  and  _241
REMARK   93  A    between atoms: _240  and  _243
REMARK   94  A    between atoms: _243  and  _244
REMARK   95  A    between atoms: _254  and  _256
REMARK   96  A    between atoms: _256  and  _257
REMARK   97  A    between atoms: _256  and  _259
REMARK   98  A    between atoms: _259  and  _260
REMARK   99  A    between atoms: _263  and  _265
REMARK  100  A    between atoms: _265  and  _266
REMARK  101  A    between atoms: _265  and  _268
REMARK  102  A    between atoms: _268  and  _269
REMARK  103  A    between atoms: _272  and  _274
REMARK  104  A    between atoms: _274  and  _275
REMARK  105  A    between atoms: _274  and  _277
REMARK  106  A    between atoms: _277  and  _278
REMARK  107  A    between atoms: _288  and  _290
REMARK  108  A    between atoms: _290  and  _291
REMARK  109  A    between atoms: _290  and  _293
REMARK  110  A    between atoms: _293  and  _294
REMARK  111  A    between atoms: _294  and  _295
REMARK  112  A    between atoms: _297  and  _299
REMARK  113  A    between atoms: _299  and  _300
REMARK  114  A    between atoms: _299  and  _302
REMARK  115  A    between atoms: _302  and  _303
REMARK  116  A    between atoms: _305  and  _307
REMARK  117  A    between atoms: _307  and  _308
REMARK  118  A    between atoms: _307  and  _310
REMARK  119  A    between atoms: _310  and  _311
REMARK  120  A    between atoms: _316  and  _317
REMARK  121  A    between atoms: _319  and  _321
REMARK  122  A    between atoms: _321  and  _322
REMARK  123  A    between atoms: _321  and  _324
REMARK  124  A    between atoms: _324  and  _325
REMARK  125  A    between atoms: _330  and  _331
REMARK  126  A    between atoms: _333  and  _335
REMARK  127  A    between atoms: _335  and  _336
REMARK  128  A    between atoms: _335  and  _338
REMARK  129  A    between atoms: _338  and  _339
REMARK  130  A    between atoms: _339  and  _340
REMARK  131  A    between atoms: _342  and  _344
REMARK  132  A    between atoms: _344  and  _345
REMARK  133  A    between atoms: _344  and  _347
REMARK  134  A    between atoms: _347  and  _348
REMARK  135  A    between atoms: _353  and  _354
REMARK  136  A    between atoms: _356  and  _358
REMARK  137  A    between atoms: _358  and  _359
REMARK  138  A    between atoms: _358  and  _361
REMARK  139  A    between atoms: _361  and  _362
REMARK  140  A    between atoms: _362  and  _363
REMARK  141  A    between atoms: _365  and  _367
REMARK  142  A    between atoms: _367  and  _368
REMARK  143  A    between atoms: _367  and  _370
REMARK  144  A    between atoms: _370  and  _371
REMARK  145  A    between atoms: _376  and  _378
REMARK  146  A    between atoms: _378  and  _379
REMARK  147  A    between atoms: _382  and  _384
REMARK  148  A    between atoms: _384  and  _385
REMARK  149  A    between atoms: _384  and  _387
REMARK  150  A    between atoms: _387  and  _388
REMARK  151  A    between atoms: _393  and  _395
REMARK  152  A    between atoms: _395  and  _396
REMARK  153  A    between atoms: _398  and  _400
REMARK  154  A    between atoms: _400  and  _401
REMARK  155  A    between atoms: _400  and  _403
REMARK  156  A    between atoms: _403  and  _404
REMARK  157  A    between atoms: _407  and  _409
REMARK  158  A    between atoms: _409  and  _410
REMARK  159  A    between atoms: _412  and  _414
REMARK  160  A    between atoms: _414  and  _415
REMARK  161  A    between atoms: _414  and  _417
REMARK  162  A    between atoms: _417  and  _418
REMARK  163  A    between atoms: _428  and  _430
REMARK  164  A    between atoms: _430  and  _431
REMARK  165  A    between atoms: _433  and  _435
REMARK  166  A    between atoms: _435  and  _436
REMARK  167  A    between atoms: _439  and  _441
REMARK  168  A    between atoms: _441  and  _442
REMARK  169  A    between atoms: _441  and  _444
REMARK  170  A    between atoms: _444  and  _445
REMARK  171  A    between atoms: _445  and  _446
REMARK  172  A    between atoms: _448  and  _450
REMARK  173  A    between atoms: _450  and  _451
REMARK  174  A    between atoms: _454  and  _456
REMARK  175  A    between atoms: _456  and  _457
REMARK  176  A    between atoms: _456  and  _459
REMARK  177  A    between atoms: _459  and  _460
REMARK  178  A    between atoms: _466  and  _468
REMARK  179  A    between atoms: _468  and  _469
REMARK  180  A    between atoms: _468  and  _471
REMARK  181  A    between atoms: _473  and  _475
REMARK  182  A    between atoms: _475  and  _476
REMARK  183  A    between atoms: _478  and  _480
REMARK  184  A    between atoms: _480  and  _481
REMARK  185  A    between atoms: _480  and  _483
REMARK  186  A    between atoms: _483  and  _484
REMARK  187  A    between atoms: _494  and  _496
REMARK  188  A    between atoms: _496  and  _497
REMARK  189  A    between atoms: _500  and  _502
REMARK  190  A    between atoms: _502  and  _503
REMARK  191  A    between atoms: _502  and  _505
REMARK  192  A    between atoms: _505  and  _506
REMARK  193  A    between atoms: _511  and  _513
REMARK  194  A    between atoms: _513  and  _514
REMARK  195  A    between atoms: _513  and  _516
REMARK  196  A    between atoms: _516  and  _517
REMARK                            x       y       z     vdW  Elec       q    Type
REMARK                         _______ _______ _______ _____ _____    ______ ____
ROOT
ATOM      1  O   HOH     1     -38.584 -55.369  21.522  0.00  0.00    +0.000 OA
ENDROOT
TORSDOF 0
REMARK  Name = ../refined-set-2016/4pfu/4pfu_pocket.pdb
REMARK  196 active torsions:
REMARK  status: ('A' for Active; 'I' for Inactive)
REMARK    1  A    between atoms: _1  and  _3
REMARK    2  A    between atoms: _3  and  _4
REMARK    3  A    between atoms: _3  and  _6
REMARK    4  A    between atoms: _6  and  _7
REMARK    5  A    between atoms: _12  and  _13
REMARK    6  A    between atoms: _15  and  _17
REMARK    7  A    between atoms: _17  and  _18
REMARK    8  A    between atoms: _20  and  _22
REMARK    9  A    between atoms: _22  and  _23
REMARK   10  A    between atoms: _25  and  _27
REMARK   11  A    between atoms: _27  and  _28
REMARK   12  A    between atoms: _27  and  _30
REMARK   13  A    between atoms: _30  and  _31
REMARK   14  A    between atoms: _33  and  _35
REMARK   15  A    between atoms: _35  and  _36
REMARK   16  A    between atoms: _35  and  _38
REMARK   17  A    between atoms: _38  and  _39
REMARK   18  A    between atoms: _42  and  _44
REMARK   19  A    between atoms: _44  and  _45
REMARK   20  A    between atoms: _44  and  _47
REMARK   21  A    between atoms: _47  and  _48
REMARK   22  A    between atoms: _59  and  _60
REMARK   23  A    between atoms: _65  and  _67
REMARK   24  A    between atoms: _67  and  _68
REMARK   25  A    between atoms: _67  and  _70
REMARK   26  A    between atoms: _70  and  _71
REMARK   27  A    between atoms: _73  and  _75
REMARK   28  A    between atoms: _75  and  _76
REMARK   29  A    between atoms: _75  and  _78
REMARK   30  A    between atoms: _78  and  _79
REMARK   31  A    between atoms: _84  and  _86
REMARK   32  A    between atoms: _86  and  _87
REMARK   33  A    between atoms: _86  and  _89
REMARK   34  A    between atoms: _89  and  _90
REMARK   35  A    between atoms: _95  and  _97
REMARK   36  A    between atoms: _97  and  _98
REMARK   37  A    between atoms: _101  and  _103
REMARK   38  A    between atoms: _103  and  _104
REMARK   39  A    between atoms: _103  and  _106
REMARK   40  A    between atoms: _106  and  _107
REMARK   41  A    between atoms: _109  and  _111
REMARK   42  A    between atoms: _111  and  _112
REMARK   43  A    between atoms: _111  and  _114
REMARK   44  A    between atoms: _114  and  _115
REMARK   45  A    between atoms: _120  and  _122
REMARK   46  A    between atoms: _122  and  _123
REMARK   47  A    between atoms: _122  and  _125
REMARK   48  A    between atoms: _125  and  _126
REMARK   49  A    between atoms: _132  and  _134
REMARK   50  A    between atoms: _134  and  _135
REMARK   51  A    between atoms: _134  and  _137
REMARK   52  A    between atoms: _137  and  _138
REMARK   53  A    between atoms: _138  and  _139
REMARK   54  A    between atoms: _141  and  _143
REMARK   55  A    between atoms: _143  and  _144
REMARK   56  A    between atoms: _143  and  _146
REMARK   57  A    between atoms: _146  and  _147
REMARK   58  A    between atoms: _150  and  _152
REMARK   59  A    between atoms: _152  and  _153
REMARK   60  A    between atoms: _152  and  _155
REMARK   61  A    between atoms: _155  and  _156
REMARK   62  A    between atoms: _158  and  _160
REMARK   63  A    between atoms: _160  and  _161
REMARK   64  A    between atoms: _160  and  _163
REMARK   65  A    between atoms: _163  and  _164
REMARK   66  A    between atoms: _167  and  _169
REMARK   67  A    between atoms: _169  and  _170
REMARK   68  A    between atoms: _169  and  _172
REMARK   69  A    between atoms: _175  and  _177
REMARK   70  A    between atoms: _177  and  _178
REMARK   71  A    between atoms: _177  and  _180
REMARK   72  A    between atoms: _183  and  _185
REMARK   73  A    between atoms: _185  and  _186
REMARK   74  A    between atoms: _185  and  _188
REMARK   75  A    between atoms: _188  and  _189
REMARK   76  A    between atoms: _194  and  _195
REMARK   77  A    between atoms: _197  and  _199
REMARK   78  A    between atoms: _199  and  _200
REMARK   79  A    between atoms: _199  and  _202
REMARK   80  A    between atoms: _205  and  _207
REMARK   81  A    between atoms: _207  and  _208
REMARK   82  A    between atoms: _207  and  _210
REMARK   83  A    between atoms: _213  and  _214
REMARK   84  A    between atoms: _219  and  _221
REMARK   85  A    between atoms: _221  and  _222
REMARK   86  A    between atoms: _221  and  _224
REMARK   87  A    between atoms: _224  and  _225
REMARK   88  A    between atoms: _230  and  _231
REMARK   89  A    between atoms: _233  and  _235
REMARK   90  A    between atoms: _235  and  _236
REMARK   91  A    between atoms: _238  and  _240
REMARK   92  A    between atoms: _240  and  _241
REMARK   93  A    between atoms: _240  and  _243
REMARK   94  A    between atoms: _243  and  _244
REMARK   95  A    between atoms: _254  and  _256
REMARK   96  A    between atoms: _256  and  _257
REMARK   97  A    between atoms: _256  and  _259
REMARK   98  A    between atoms: _259  and  _260
REMARK   99  A    between atoms: _263  and  _265
REMARK  100  A    between atoms: _265  and  _266
REMARK  101  A    between atoms: _265  and  _268
REMARK  102  A    between atoms: _268  and  _269
REMARK  103  A    between atoms: _272  and  _274
REMARK  104  A    between atoms: _274  and  _275
REMARK  105  A    between atoms: _274  and  _277
REMARK  106  A    between atoms: _277  and  _278
REMARK  107  A    between atoms: _288  and  _290
REMARK  108  A    between atoms: _290  and  _291
REMARK  109  A    between atoms: _290  and  _293
REMARK  110  A    between atoms: _293  and  _294
REMARK  111  A    between atoms: _294  and  _295
REMARK  112  A    between atoms: _297  and  _299
REMARK  113  A    between atoms: _299  and  _300
REMARK  114  A    between atoms: _299  and  _302
REMARK  115  A    between atoms: _302  and  _303
REMARK  116  A    between atoms: _305  and  _307
REMARK  117  A    between atoms: _307  and  _308
REMARK  118  A    between atoms: _307  and  _310
REMARK  119  A    between atoms: _310  and  _311
REMARK  120  A    between atoms: _316  and  _317
REMARK  121  A    between atoms: _319  and  _321
REMARK  122  A    between atoms: _321  and  _322
REMARK  123  A    between atoms: _321  and  _324
REMARK  124  A    between atoms: _324  and  _325
REMARK  125  A    between atoms: _330  and  _331
REMARK  126  A    between atoms: _333  and  _335
REMARK  127  A    between atoms: _335  and  _336
REMARK  128  A    between atoms: _335  and  _338
REMARK  129  A    between atoms: _338  and  _339
REMARK  130  A    between atoms: _339  and  _340
REMARK  131  A    between atoms: _342  and  _344
REMARK  132  A    between atoms: _344  and  _345
REMARK  133  A    between atoms: _344  and  _347
REMARK  134  A    between atoms: _347  and  _348
REMARK  135  A    between atoms: _353  and  _354
REMARK  136  A    between atoms: _356  and  _358
REMARK  137  A    between atoms: _358  and  _359
REMARK  138  A    between atoms: _358  and  _361
REMARK  139  A    between atoms: _361  and  _362
REMARK  140  A    between atoms: _362  and  _363
REMARK  141  A    between atoms: _365  and  _367
REMARK  142  A    between atoms: _367  and  _368
REMARK  143  A    between atoms: _367  and  _370
REMARK  144  A    between atoms: _370  and  _371
REMARK  145  A    between atoms: _376  and  _378
REMARK  146  A    between atoms: _378  and  _379
REMARK  147  A    between atoms: _382  and  _384
REMARK  148  A    between atoms: _384  and  _385
REMARK  149  A    between atoms: _384  and  _387
REMARK  150  A    between atoms: _387  and  _388
REMARK  151  A    between atoms: _393  and  _395
REMARK  152  A    between atoms: _395  and  _396
REMARK  153  A    between atoms: _398  and  _400
REMARK  154  A    between atoms: _400  and  _401
REMARK  155  A    between atoms: _400  and  _403
REMARK  156  A    between atoms: _403  and  _404
REMARK  157  A    between atoms: _407  and  _409
REMARK  158  A    between atoms: _409  and  _410
REMARK  159  A    between atoms: _412  and  _414
REMARK  160  A    between atoms: _414  and  _415
REMARK  161  A    between atoms: _414  and  _417
REMARK  162  A    between atoms: _417  and  _418
REMARK  163  A    between atoms: _428  and  _430
REMARK  164  A    between atoms: _430  and  _431
REMARK  165  A    between atoms: _433  and  _435
REMARK  166  A    between atoms: _435  and  _436
REMARK  167  A    between atoms: _439  and  _441
REMARK  168  A    between atoms: _441  and  _442
REMARK  169  A    between atoms: _441  and  _444
REMARK  170  A    between atoms: _444  and  _445
REMARK  171  A    between atoms: _445  and  _446
REMARK  172  A    between atoms: _448  and  _450
REMARK  173  A    between atoms: _450  and  _451
REMARK  174  A    between atoms: _454  and  _456
REMARK  175  A    between atoms: _456  and  _457
REMARK  176  A    between atoms: _456  and  _459
REMARK  177  A    between atoms: _459  and  _460
REMARK  178  A    between atoms: _466  and  _468
REMARK  179  A    between atoms: _468  and  _469
REMARK  180  A    between atoms: _468  and  _471
REMARK  181  A    between atoms: _473  and  _475
REMARK  182  A    between atoms: _475  and  _476
REMARK  183  A    between atoms: _478  and  _480
REMARK  184  A    between atoms: _480  and  _481
REMARK  185  A    between atoms: _480  and  _483
REMARK  186  A    between atoms: _483  and  _484
REMARK  187  A    between atoms: _494  and  _496
REMARK  188  A    between atoms: _496  and  _497
REMARK  189  A    between atoms: _500  and  _502
REMARK  190  A    between atoms: _502  and  _503
REMARK  191  A    between atoms: _502  and  _505
REMARK  192  A    between atoms: _505  and  _506
REMARK  193  A    between atoms: _511  and  _513
REMARK  194  A    between atoms: _513  and  _514
REMARK  195  A    between atoms: _513  and  _516
REMARK  196  A    between atoms: _516  and  _517
REMARK                            x       y       z     vdW  Elec       q    Type
REMARK                         _______ _______ _______ _____ _____    ______ ____
ROOT
ATOM      1  O   HOH     1     -32.630 -56.913  20.886  0.00  0.00    +0.000 OA
ENDROOT
TORSDOF 0
REMARK  Name = ../refined-set-2016/4pfu/4pfu_pocket.pdb
REMARK  196 active torsions:
REMARK  status: ('A' for Active; 'I' for Inactive)
REMARK    1  A    between atoms: _1  and  _3
REMARK    2  A    between atoms: _3  and  _4
REMARK    3  A    between atoms: _3  and  _6
REMARK    4  A    between atoms: _6  and  _7
REMARK    5  A    between atoms: _12  and  _13
REMARK    6  A    between atoms: _15  and  _17
REMARK    7  A    between atoms: _17  and  _18
REMARK    8  A    between atoms: _20  and  _22
REMARK    9  A    between atoms: _22  and  _23
REMARK   10  A    between atoms: _25  and  _27
REMARK   11  A    between atoms: _27  and  _28
REMARK   12  A    between atoms: _27  and  _30
REMARK   13  A    between atoms: _30  and  _31
REMARK   14  A    between atoms: _33  and  _35
REMARK   15  A    between atoms: _35  and  _36
REMARK   16  A    between atoms: _35  and  _38
REMARK   17  A    between atoms: _38  and  _39
REMARK   18  A    between atoms: _42  and  _44
REMARK   19  A    between atoms: _44  and  _45
REMARK   20  A    between atoms: _44  and  _47
REMARK   21  A    between atoms: _47  and  _48
REMARK   22  A    between atoms: _59  and  _60
REMARK   23  A    between atoms: _65  and  _67
REMARK   24  A    between atoms: _67  and  _68
REMARK   25  A    between atoms: _67  and  _70
REMARK   26  A    between atoms: _70  and  _71
REMARK   27  A    between atoms: _73  and  _75
REMARK   28  A    between atoms: _75  and  _76
REMARK   29  A    between atoms: _75  and  _78
REMARK   30  A    between atoms: _78  and  _79
REMARK   31  A    between atoms: _84  and  _86
REMARK   32  A    between atoms: _86  and  _87
REMARK   33  A    between atoms: _86  and  _89
REMARK   34  A    between atoms: _89  and  _90
REMARK   35  A    between atoms: _95  and  _97
REMARK   36  A    between atoms: _97  and  _98
REMARK   37  A    between atoms: _101  and  _103
REMARK   38  A    between atoms: _103  and  _104
REMARK   39  A    between atoms: _103  and  _106
REMARK   40  A    between atoms: _106  and  _107
REMARK   41  A    between atoms: _109  and  _111
REMARK   42  A    between atoms: _111  and  _112
REMARK   43  A    between atoms: _111  and  _114
REMARK   44  A    between atoms: _114  and  _115
REMARK   45  A    between atoms: _120  and  _122
REMARK   46  A    between atoms: _122  and  _123
REMARK   47  A    between atoms: _122  and  _125
REMARK   48  A    between atoms: _125  and  _126
REMARK   49  A    between atoms: _132  and  _134
REMARK   50  A    between atoms: _134  and  _135
REMARK   51  A    between atoms: _134  and  _137
REMARK   52  A    between atoms: _137  and  _138
REMARK   53  A    between atoms: _138  and  _139
REMARK   54  A    between atoms: _141  and  _143
REMARK   55  A    between atoms: _143  and  _144
REMARK   56  A    between atoms: _143  and  _146
REMARK   57  A    between atoms: _146  and  _147
REMARK   58  A    between atoms: _150  and  _152
REMARK   59  A    between atoms: _152  and  _153
REMARK   60  A    between atoms: _152  and  _155
REMARK   61  A    between atoms: _155  and  _156
REMARK   62  A    between atoms: _158  and  _160
REMARK   63  A    between atoms: _160  and  _161
REMARK   64  A    between atoms: _160  and  _163
REMARK   65  A    between atoms: _163  and  _164
REMARK   66  A    between atoms: _167  and  _169
REMARK   67  A    between atoms: _169  and  _170
REMARK   68  A    between atoms: _169  and  _172
REMARK   69  A    between atoms: _175  and  _177
REMARK   70  A    between atoms: _177  and  _178
REMARK   71  A    between atoms: _177  and  _180
REMARK   72  A    between atoms: _183  and  _185
REMARK   73  A    between atoms: _185  and  _186
REMARK   74  A    between atoms: _185  and  _188
REMARK   75  A    between atoms: _188  and  _189
REMARK   76  A    between atoms: _194  and  _195
REMARK   77  A    between atoms: _197  and  _199
REMARK   78  A    between atoms: _199  and  _200
REMARK   79  A    between atoms: _199  and  _202
REMARK   80  A    between atoms: _205  and  _207
REMARK   81  A    between atoms: _207  and  _208
REMARK   82  A    between atoms: _207  and  _210
REMARK   83  A    between atoms: _213  and  _214
REMARK   84  A    between atoms: _219  and  _221
REMARK   85  A    between atoms: _221  and  _222
REMARK   86  A    between atoms: _221  and  _224
REMARK   87  A    between atoms: _224  and  _225
REMARK   88  A    between atoms: _230  and  _231
REMARK   89  A    between atoms: _233  and  _235
REMARK   90  A    between atoms: _235  and  _236
REMARK   91  A    between atoms: _238  and  _240
REMARK   92  A    between atoms: _240  and  _241
REMARK   93  A    between atoms: _240  and  _243
REMARK   94  A    between atoms: _243  and  _244
REMARK   95  A    between atoms: _254  and  _256
REMARK   96  A    between atoms: _256  and  _257
REMARK   97  A    between atoms: _256  and  _259
REMARK   98  A    between atoms: _259  and  _260
REMARK   99  A    between atoms: _263  and  _265
REMARK  100  A    between atoms: _265  and  _266
REMARK  101  A    between atoms: _265  and  _268
REMARK  102  A    between atoms: _268  and  _269
REMARK  103  A    between atoms: _272  and  _274
REMARK  104  A    between atoms: _274  and  _275
REMARK  105  A    between atoms: _274  and  _277
REMARK  106  A    between atoms: _277  and  _278
REMARK  107  A    between atoms: _288  and  _290
REMARK  108  A    between atoms: _290  and  _291
REMARK  109  A    between atoms: _290  and  _293
REMARK  110  A    between atoms: _293  and  _294
REMARK  111  A    between atoms: _294  and  _295
REMARK  112  A    between atoms: _297  and  _299
REMARK  113  A    between atoms: _299  and  _300
REMARK  114  A    between atoms: _299  and  _302
REMARK  115  A    between atoms: _302  and  _303
REMARK  116  A    between atoms: _305  and  _307
REMARK  117  A    between atoms: _307  and  _308
REMARK  118  A    between atoms: _307  and  _310
REMARK  119  A    between atoms: _310  and  _311
REMARK  120  A    between atoms: _316  and  _317
REMARK  121  A    between atoms: _319  and  _321
REMARK  122  A    between atoms: _321  and  _322
REMARK  123  A    between atoms: _321  and  _324
REMARK  124  A    between atoms: _324  and  _325
REMARK  125  A    between atoms: _330  and  _331
REMARK  126  A    between atoms: _333  and  _335
REMARK  127  A    between atoms: _335  and  _336
REMARK  128  A    between atoms: _335  and  _338
REMARK  129  A    between atoms: _338  and  _339
REMARK  130  A    between atoms: _339  and  _340
REMARK  131  A    between atoms: _342  and  _344
REMARK  132  A    between atoms: _344  and  _345
REMARK  133  A    between atoms: _344  and  _347
REMARK  134  A    between atoms: _347  and  _348
REMARK  135  A    between atoms: _353  and  _354
REMARK  136  A    between atoms: _356  and  _358
REMARK  137  A    between atoms: _358  and  _359
REMARK  138  A    between atoms: _358  and  _361
REMARK  139  A    between atoms: _361  and  _362
REMARK  140  A    between atoms: _362  and  _363
REMARK  141  A    between atoms: _365  and  _367
REMARK  142  A    between atoms: _367  and  _368
REMARK  143  A    between atoms: _367  and  _370
REMARK  144  A    between atoms: _370  and  _371
REMARK  145  A    between atoms: _376  and  _378
REMARK  146  A    between atoms: _378  and  _379
REMARK  147  A    between atoms: _382  and  _384
REMARK  148  A    between atoms: _384  and  _385
REMARK  149  A    between atoms: _384  and  _387
REMARK  150  A    between atoms: _387  and  _388
REMARK  151  A    between atoms: _393  and  _395
REMARK  152  A    between atoms: _395  and  _396
REMARK  153  A    between atoms: _398  and  _400
REMARK  154  A    between atoms: _400  and  _401
REMARK  155  A    between atoms: _400  and  _403
REMARK  156  A    between atoms: _403  and  _404
REMARK  157  A    between atoms: _407  and  _409
REMARK  158  A    between atoms: _409  and  _410
REMARK  159  A    between atoms: _412  and  _414
REMARK  160  A    between atoms: _414  and  _415
REMARK  161  A    between atoms: _414  and  _417
REMARK  162  A    between atoms: _417  and  _418
REMARK  163  A    between atoms: _428  and  _430
REMARK  164  A    between atoms: _430  and  _431
REMARK  165  A    between atoms: _433  and  _435
REMARK  166  A    between atoms: _435  and  _436
REMARK  167  A    between atoms: _439  and  _441
REMARK  168  A    between atoms: _441  and  _442
REMARK  169  A    between atoms: _441  and  _444
REMARK  170  A    between atoms: _444  and  _445
REMARK  171  A    between atoms: _445  and  _446
REMARK  172  A    between atoms: _448  and  _450
REMARK  173  A    between atoms: _450  and  _451
REMARK  174  A    between atoms: _454  and  _456
REMARK  175  A    between atoms: _456  and  _457
REMARK  176  A    between atoms: _456  and  _459
REMARK  177  A    between atoms: _459  and  _460
REMARK  178  A    between atoms: _466  and  _468
REMARK  179  A    between atoms: _468  and  _469
REMARK  180  A    between atoms: _468  and  _471
REMARK  181  A    between atoms: _473  and  _475
REMARK  182  A    between atoms: _475  and  _476
REMARK  183  A    between atoms: _478  and  _480
REMARK  184  A    between atoms: _480  and  _481
REMARK  185  A    between atoms: _480  and  _483
REMARK  186  A    between atoms: _483  and  _484
REMARK  187  A    between atoms: _494  and  _496
REMARK  188  A    between atoms: _496  and  _497
REMARK  189  A    between atoms: _500  and  _502
REMARK  190  A    between atoms: _502  and  _503
REMARK  191  A    between atoms: _502  and  _505
REMARK  192  A    between atoms: _505  and  _506
REMARK  193  A    between atoms: _511  and  _513
REMARK  194  A    between atoms: _513  and  _514
REMARK  195  A    between atoms: _513  and  _516
REMARK  196  A    between atoms: _516  and  _517
REMARK                            x       y       z     vdW  Elec       q    Type
REMARK                         _______ _______ _______ _____ _____    ______ ____
ROOT
ATOM      1  O   HOH     1     -36.121 -59.629  22.147  0.00  0.00    +0.000 OA
ENDROOT
TORSDOF 0
REMARK  Name = ../refined-set-2016/4pfu/4pfu_pocket.pdb
REMARK  196 active torsions:
REMARK  status: ('A' for Active; 'I' for Inactive)
REMARK    1  A    between atoms: _1  and  _3
REMARK    2  A    between atoms: _3  and  _4
REMARK    3  A    between atoms: _3  and  _6
REMARK    4  A    between atoms: _6  and  _7
REMARK    5  A    between atoms: _12  and  _13
REMARK    6  A    between atoms: _15  and  _17
REMARK    7  A    between atoms: _17  and  _18
REMARK    8  A    between atoms: _20  and  _22
REMARK    9  A    between atoms: _22  and  _23
REMARK   10  A    between atoms: _25  and  _27
REMARK   11  A    between atoms: _27  and  _28
REMARK   12  A    between atoms: _27  and  _30
REMARK   13  A    between atoms: _30  and  _31
REMARK   14  A    between atoms: _33  and  _35
REMARK   15  A    between atoms: _35  and  _36
REMARK   16  A    between atoms: _35  and  _38
REMARK   17  A    between atoms: _38  and  _39
REMARK   18  A    between atoms: _42  and  _44
REMARK   19  A    between atoms: _44  and  _45
REMARK   20  A    between atoms: _44  and  _47
REMARK   21  A    between atoms: _47  and  _48
REMARK   22  A    between atoms: _59  and  _60
REMARK   23  A    between atoms: _65  and  _67
REMARK   24  A    between atoms: _67  and  _68
REMARK   25  A    between atoms: _67  and  _70
REMARK   26  A    between atoms: _70  and  _71
REMARK   27  A    between atoms: _73  and  _75
REMARK   28  A    between atoms: _75  and  _76
REMARK   29  A    between atoms: _75  and  _78
REMARK   30  A    between atoms: _78  and  _79
REMARK   31  A    between atoms: _84  and  _86
REMARK   32  A    between atoms: _86  and  _87
REMARK   33  A    between atoms: _86  and  _89
REMARK   34  A    between atoms: _89  and  _90
REMARK   35  A    between atoms: _95  and  _97
REMARK   36  A    between atoms: _97  and  _98
REMARK   37  A    between atoms: _101  and  _103
REMARK   38  A    between atoms: _103  and  _104
REMARK   39  A    between atoms: _103  and  _106
REMARK   40  A    between atoms: _106  and  _107
REMARK   41  A    between atoms: _109  and  _111
REMARK   42  A    between atoms: _111  and  _112
REMARK   43  A    between atoms: _111  and  _114
REMARK   44  A    between atoms: _114  and  _115
REMARK   45  A    between atoms: _120  and  _122
REMARK   46  A    between atoms: _122  and  _123
REMARK   47  A    between atoms: _122  and  _125
REMARK   48  A    between atoms: _125  and  _126
REMARK   49  A    between atoms: _132  and  _134
REMARK   50  A    between atoms: _134  and  _135
REMARK   51  A    between atoms: _134  and  _137
REMARK   52  A    between atoms: _137  and  _138
REMARK   53  A    between atoms: _138  and  _139
REMARK   54  A    between atoms: _141  and  _143
REMARK   55  A    between atoms: _143  and  _144
REMARK   56  A    between atoms: _143  and  _146
REMARK   57  A    between atoms: _146  and  _147
REMARK   58  A    between atoms: _150  and  _152
REMARK   59  A    between atoms: _152  and  _153
REMARK   60  A    between atoms: _152  and  _155
REMARK   61  A    between atoms: _155  and  _156
REMARK   62  A    between atoms: _158  and  _160
REMARK   63  A    between atoms: _160  and  _161
REMARK   64  A    between atoms: _160  and  _163
REMARK   65  A    between atoms: _163  and  _164
REMARK   66  A    between atoms: _167  and  _169
REMARK   67  A    between atoms: _169  and  _170
REMARK   68  A    between atoms: _169  and  _172
REMARK   69  A    between atoms: _175  and  _177
REMARK   70  A    between atoms: _177  and  _178
REMARK   71  A    between atoms: _177  and  _180
REMARK   72  A    between atoms: _183  and  _185
REMARK   73  A    between atoms: _185  and  _186
REMARK   74  A    between atoms: _185  and  _188
REMARK   75  A    between atoms: _188  and  _189
REMARK   76  A    between atoms: _194  and  _195
REMARK   77  A    between atoms: _197  and  _199
REMARK   78  A    between atoms: _199  and  _200
REMARK   79  A    between atoms: _199  and  _202
REMARK   80  A    between atoms: _205  and  _207
REMARK   81  A    between atoms: _207  and  _208
REMARK   82  A    between atoms: _207  and  _210
REMARK   83  A    between atoms: _213  and  _214
REMARK   84  A    between atoms: _219  and  _221
REMARK   85  A    between atoms: _221  and  _222
REMARK   86  A    between atoms: _221  and  _224
REMARK   87  A    between atoms: _224  and  _225
REMARK   88  A    between atoms: _230  and  _231
REMARK   89  A    between atoms: _233  and  _235
REMARK   90  A    between atoms: _235  and  _236
REMARK   91  A    between atoms: _238  and  _240
REMARK   92  A    between atoms: _240  and  _241
REMARK   93  A    between atoms: _240  and  _243
REMARK   94  A    between atoms: _243  and  _244
REMARK   95  A    between atoms: _254  and  _256
REMARK   96  A    between atoms: _256  and  _257
REMARK   97  A    between atoms: _256  and  _259
REMARK   98  A    between atoms: _259  and  _260
REMARK   99  A    between atoms: _263  and  _265
REMARK  100  A    between atoms: _265  and  _266
REMARK  101  A    between atoms: _265  and  _268
REMARK  102  A    between atoms: _268  and  _269
REMARK  103  A    between atoms: _272  and  _274
REMARK  104  A    between atoms: _274  and  _275
REMARK  105  A    between atoms: _274  and  _277
REMARK  106  A    between atoms: _277  and  _278
REMARK  107  A    between atoms: _288  and  _290
REMARK  108  A    between atoms: _290  and  _291
REMARK  109  A    between atoms: _290  and  _293
REMARK  110  A    between atoms: _293  and  _294
REMARK  111  A    between atoms: _294  and  _295
REMARK  112  A    between atoms: _297  and  _299
REMARK  113  A    between atoms: _299  and  _300
REMARK  114  A    between atoms: _299  and  _302
REMARK  115  A    between atoms: _302  and  _303
REMARK  116  A    between atoms: _305  and  _307
REMARK  117  A    between atoms: _307  and  _308
REMARK  118  A    between atoms: _307  and  _310
REMARK  119  A    between atoms: _310  and  _311
REMARK  120  A    between atoms: _316  and  _317
REMARK  121  A    between atoms: _319  and  _321
REMARK  122  A    between atoms: _321  and  _322
REMARK  123  A    between atoms: _321  and  _324
REMARK  124  A    between atoms: _324  and  _325
REMARK  125  A    between atoms: _330  and  _331
REMARK  126  A    between atoms: _333  and  _335
REMARK  127  A    between atoms: _335  and  _336
REMARK  128  A    between atoms: _335  and  _338
REMARK  129  A    between atoms: _338  and  _339
REMARK  130  A    between atoms: _339  and  _340
REMARK  131  A    between atoms: _342  and  _344
REMARK  132  A    between atoms: _344  and  _345
REMARK  133  A    between atoms: _344  and  _347
REMARK  134  A    between atoms: _347  and  _348
REMARK  135  A    between atoms: _353  and  _354
REMARK  136  A    between atoms: _356  and  _358
REMARK  137  A    between atoms: _358  and  _359
REMARK  138  A    between atoms: _358  and  _361
REMARK  139  A    between atoms: _361  and  _362
REMARK  140  A    between atoms: _362  and  _363
REMARK  141  A    between atoms: _365  and  _367
REMARK  142  A    between atoms: _367  and  _368
REMARK  143  A    between atoms: _367  and  _370
REMARK  144  A    between atoms: _370  and  _371
REMARK  145  A    between atoms: _376  and  _378
REMARK  146  A    between atoms: _378  and  _379
REMARK  147  A    between atoms: _382  and  _384
REMARK  148  A    between atoms: _384  and  _385
REMARK  149  A    between atoms: _384  and  _387
REMARK  150  A    between atoms: _387  and  _388
REMARK  151  A    between atoms: _393  and  _395
REMARK  152  A    between atoms: _395  and  _396
REMARK  153  A    between atoms: _398  and  _400
REMARK  154  A    between atoms: _400  and  _401
REMARK  155  A    between atoms: _400  and  _403
REMARK  156  A    between atoms: _403  and  _404
REMARK  157  A    between atoms: _407  and  _409
REMARK  158  A    between atoms: _409  and  _410
REMARK  159  A    between atoms: _412  and  _414
REMARK  160  A    between atoms: _414  and  _415
REMARK  161  A    between atoms: _414  and  _417
REMARK  162  A    between atoms: _417  and  _418
REMARK  163  A    between atoms: _428  and  _430
REMARK  164  A    between atoms: _430  and  _431
REMARK  165  A    between atoms: _433  and  _435
REMARK  166  A    between atoms: _435  and  _436
REMARK  167  A    between atoms: _439  and  _441
REMARK  168  A    between atoms: _441  and  _442
REMARK  169  A    between atoms: _441  and  _444
REMARK  170  A    between atoms: _444  and  _445
REMARK  171  A    between atoms: _445  and  _446
REMARK  172  A    between atoms: _448  and  _450
REMARK  173  A    between atoms: _450  and  _451
REMARK  174  A    between atoms: _454  and  _456
REMARK  175  A    between atoms: _456  and  _457
REMARK  176  A    between atoms: _456  and  _459
REMARK  177  A    between atoms: _459  and  _460
REMARK  178  A    between atoms: _466  and  _468
REMARK  179  A    between atoms: _468  and  _469
REMARK  180  A    between atoms: _468  and  _471
REMARK  181  A    between atoms: _473  and  _475
REMARK  182  A    between atoms: _475  and  _476
REMARK  183  A    between atoms: _478  and  _480
REMARK  184  A    between atoms: _480  and  _481
REMARK  185  A    between atoms: _480  and  _483
REMARK  186  A    between atoms: _483  and  _484
REMARK  187  A    between atoms: _494  and  _496
REMARK  188  A    between atoms: _496  and  _497
REMARK  189  A    between atoms: _500  and  _502
REMARK  190  A    between atoms: _502  and  _503
REMARK  191  A    between atoms: _502  and  _505
REMARK  192  A    between atoms: _505  and  _506
REMARK  193  A    between atoms: _511  and  _513
REMARK  194  A    between atoms: _513  and  _514
REMARK  195  A    between atoms: _513  and  _516
REMARK  196  A    between atoms: _516  and  _517
REMARK                            x       y       z     vdW  Elec       q    Type
REMARK                         _______ _______ _______ _____ _____    ______ ____
ROOT
ATOM      1  O   HOH     1     -30.329 -51.310  17.388  0.00  0.00    +0.000 OA
ENDROOT
TORSDOF 0
REMARK  Name = ../refined-set-2016/4pfu/4pfu_pocket.pdb
REMARK  196 active torsions:
REMARK  status: ('A' for Active; 'I' for Inactive)
REMARK    1  A    between atoms: _1  and  _3
REMARK    2  A    between atoms: _3  and  _4
REMARK    3  A    between atoms: _3  and  _6
REMARK    4  A    between atoms: _6  and  _7
REMARK    5  A    between atoms: _12  and  _13
REMARK    6  A    between atoms: _15  and  _17
REMARK    7  A    between atoms: _17  and  _18
REMARK    8  A    between atoms: _20  and  _22
REMARK    9  A    between atoms: _22  and  _23
REMARK   10  A    between atoms: _25  and  _27
REMARK   11  A    between atoms: _27  and  _28
REMARK   12  A    between atoms: _27  and  _30
REMARK   13  A    between atoms: _30  and  _31
REMARK   14  A    between atoms: _33  and  _35
REMARK   15  A    between atoms: _35  and  _36
REMARK   16  A    between atoms: _35  and  _38
REMARK   17  A    between atoms: _38  and  _39
REMARK   18  A    between atoms: _42  and  _44
REMARK   19  A    between atoms: _44  and  _45
REMARK   20  A    between atoms: _44  and  _47
REMARK   21  A    between atoms: _47  and  _48
REMARK   22  A    between atoms: _59  and  _60
REMARK   23  A    between atoms: _65  and  _67
REMARK   24  A    between atoms: _67  and  _68
REMARK   25  A    between atoms: _67  and  _70
REMARK   26  A    between atoms: _70  and  _71
REMARK   27  A    between atoms: _73  and  _75
REMARK   28  A    between atoms: _75  and  _76
REMARK   29  A    between atoms: _75  and  _78
REMARK   30  A    between atoms: _78  and  _79
REMARK   31  A    between atoms: _84  and  _86
REMARK   32  A    between atoms: _86  and  _87
REMARK   33  A    between atoms: _86  and  _89
REMARK   34  A    between atoms: _89  and  _90
REMARK   35  A    between atoms: _95  and  _97
REMARK   36  A    between atoms: _97  and  _98
REMARK   37  A    between atoms: _101  and  _103
REMARK   38  A    between atoms: _103  and  _104
REMARK   39  A    between atoms: _103  and  _106
REMARK   40  A    between atoms: _106  and  _107
REMARK   41  A    between atoms: _109  and  _111
REMARK   42  A    between atoms: _111  and  _112
REMARK   43  A    between atoms: _111  and  _114
REMARK   44  A    between atoms: _114  and  _115
REMARK   45  A    between atoms: _120  and  _122
REMARK   46  A    between atoms: _122  and  _123
REMARK   47  A    between atoms: _122  and  _125
REMARK   48  A    between atoms: _125  and  _126
REMARK   49  A    between atoms: _132  and  _134
REMARK   50  A    between atoms: _134  and  _135
REMARK   51  A    between atoms: _134  and  _137
REMARK   52  A    between atoms: _137  and  _138
REMARK   53  A    between atoms: _138  and  _139
REMARK   54  A    between atoms: _141  and  _143
REMARK   55  A    between atoms: _143  and  _144
REMARK   56  A    between atoms: _143  and  _146
REMARK   57  A    between atoms: _146  and  _147
REMARK   58  A    between atoms: _150  and  _152
REMARK   59  A    between atoms: _152  and  _153
REMARK   60  A    between atoms: _152  and  _155
REMARK   61  A    between atoms: _155  and  _156
REMARK   62  A    between atoms: _158  and  _160
REMARK   63  A    between atoms: _160  and  _161
REMARK   64  A    between atoms: _160  and  _163
REMARK   65  A    between atoms: _163  and  _164
REMARK   66  A    between atoms: _167  and  _169
REMARK   67  A    between atoms: _169  and  _170
REMARK   68  A    between atoms: _169  and  _172
REMARK   69  A    between atoms: _175  and  _177
REMARK   70  A    between atoms: _177  and  _178
REMARK   71  A    between atoms: _177  and  _180
REMARK   72  A    between atoms: _183  and  _185
REMARK   73  A    between atoms: _185  and  _186
REMARK   74  A    between atoms: _185  and  _188
REMARK   75  A    between atoms: _188  and  _189
REMARK   76  A    between atoms: _194  and  _195
REMARK   77  A    between atoms: _197  and  _199
REMARK   78  A    between atoms: _199  and  _200
REMARK   79  A    between atoms: _199  and  _202
REMARK   80  A    between atoms: _205  and  _207
REMARK   81  A    between atoms: _207  and  _208
REMARK   82  A    between atoms: _207  and  _210
REMARK   83  A    between atoms: _213  and  _214
REMARK   84  A    between atoms: _219  and  _221
REMARK   85  A    between atoms: _221  and  _222
REMARK   86  A    between atoms: _221  and  _224
REMARK   87  A    between atoms: _224  and  _225
REMARK   88  A    between atoms: _230  and  _231
REMARK   89  A    between atoms: _233  and  _235
REMARK   90  A    between atoms: _235  and  _236
REMARK   91  A    between atoms: _238  and  _240
REMARK   92  A    between atoms: _240  and  _241
REMARK   93  A    between atoms: _240  and  _243
REMARK   94  A    between atoms: _243  and  _244
REMARK   95  A    between atoms: _254  and  _256
REMARK   96  A    between atoms: _256  and  _257
REMARK   97  A    between atoms: _256  and  _259
REMARK   98  A    between atoms: _259  and  _260
REMARK   99  A    between atoms: _263  and  _265
REMARK  100  A    between atoms: _265  and  _266
REMARK  101  A    between atoms: _265  and  _268
REMARK  102  A    between atoms: _268  and  _269
REMARK  103  A    between atoms: _272  and  _274
REMARK  104  A    between atoms: _274  and  _275
REMARK  105  A    between atoms: _274  and  _277
REMARK  106  A    between atoms: _277  and  _278
REMARK  107  A    between atoms: _288  and  _290
REMARK  108  A    between atoms: _290  and  _291
REMARK  109  A    between atoms: _290  and  _293
REMARK  110  A    between atoms: _293  and  _294
REMARK  111  A    between atoms: _294  and  _295
REMARK  112  A    between atoms: _297  and  _299
REMARK  113  A    between atoms: _299  and  _300
REMARK  114  A    between atoms: _299  and  _302
REMARK  115  A    between atoms: _302  and  _303
REMARK  116  A    between atoms: _305  and  _307
REMARK  117  A    between atoms: _307  and  _308
REMARK  118  A    between atoms: _307  and  _310
REMARK  119  A    between atoms: _310  and  _311
REMARK  120  A    between atoms: _316  and  _317
REMARK  121  A    between atoms: _319  and  _321
REMARK  122  A    between atoms: _321  and  _322
REMARK  123  A    between atoms: _321  and  _324
REMARK  124  A    between atoms: _324  and  _325
REMARK  125  A    between atoms: _330  and  _331
REMARK  126  A    between atoms: _333  and  _335
REMARK  127  A    between atoms: _335  and  _336
REMARK  128  A    between atoms: _335  and  _338
REMARK  129  A    between atoms: _338  and  _339
REMARK  130  A    between atoms: _339  and  _340
REMARK  131  A    between atoms: _342  and  _344
REMARK  132  A    between atoms: _344  and  _345
REMARK  133  A    between atoms: _344  and  _347
REMARK  134  A    between atoms: _347  and  _348
REMARK  135  A    between atoms: _353  and  _354
REMARK  136  A    between atoms: _356  and  _358
REMARK  137  A    between atoms: _358  and  _359
REMARK  138  A    between atoms: _358  and  _361
REMARK  139  A    between atoms: _361  and  _362
REMARK  140  A    between atoms: _362  and  _363
REMARK  141  A    between atoms: _365  and  _367
REMARK  142  A    between atoms: _367  and  _368
REMARK  143  A    between atoms: _367  and  _370
REMARK  144  A    between atoms: _370  and  _371
REMARK  145  A    between atoms: _376  and  _378
REMARK  146  A    between atoms: _378  and  _379
REMARK  147  A    between atoms: _382  and  _384
REMARK  148  A    between atoms: _384  and  _385
REMARK  149  A    between atoms: _384  and  _387
REMARK  150  A    between atoms: _387  and  _388
REMARK  151  A    between atoms: _393  and  _395
REMARK  152  A    between atoms: _395  and  _396
REMARK  153  A    between atoms: _398  and  _400
REMARK  154  A    between atoms: _400  and  _401
REMARK  155  A    between atoms: _400  and  _403
REMARK  156  A    between atoms: _403  and  _404
REMARK  157  A    between atoms: _407  and  _409
REMARK  158  A    between atoms: _409  and  _410
REMARK  159  A    between atoms: _412  and  _414
REMARK  160  A    between atoms: _414  and  _415
REMARK  161  A    between atoms: _414  and  _417
REMARK  162  A    between atoms: _417  and  _418
REMARK  163  A    between atoms: _428  and  _430
REMARK  164  A    between atoms: _430  and  _431
REMARK  165  A    between atoms: _433  and  _435
REMARK  166  A    between atoms: _435  and  _436
REMARK  167  A    between atoms: _439  and  _441
REMARK  168  A    between atoms: _441  and  _442
REMARK  169  A    between atoms: _441  and  _444
REMARK  170  A    between atoms: _444  and  _445
REMARK  171  A    between atoms: _445  and  _446
REMARK  172  A    between atoms: _448  and  _450
REMARK  173  A    between atoms: _450  and  _451
REMARK  174  A    between atoms: _454  and  _456
REMARK  175  A    between atoms: _456  and  _457
REMARK  176  A    between atoms: _456  and  _459
REMARK  177  A    between atoms: _459  and  _460
REMARK  178  A    between atoms: _466  and  _468
REMARK  179  A    between atoms: _468  and  _469
REMARK  180  A    between atoms: _468  and  _471
REMARK  181  A    between atoms: _473  and  _475
REMARK  182  A    between atoms: _475  and  _476
REMARK  183  A    between atoms: _478  and  _480
REMARK  184  A    between atoms: _480  and  _481
REMARK  185  A    between atoms: _480  and  _483
REMARK  186  A    between atoms: _483  and  _484
REMARK  187  A    between atoms: _494  and  _496
REMARK  188  A    between atoms: _496  and  _497
REMARK  189  A    between atoms: _500  and  _502
REMARK  190  A    between atoms: _502  and  _503
REMARK  191  A    between atoms: _502  and  _505
REMARK  192  A    between atoms: _505  and  _506
REMARK  193  A    between atoms: _511  and  _513
REMARK  194  A    between atoms: _513  and  _514
REMARK  195  A    between atoms: _513  and  _516
REMARK  196  A    between atoms: _516  and  _517
REMARK                            x       y       z     vdW  Elec       q    Type
REMARK                         _______ _______ _______ _____ _____    ______ ____
ROOT
ATOM      1  O   HOH     1     -38.654 -59.147  22.535  0.00  0.00    +0.000 OA
ENDROOT
TORSDOF 0
REMARK  Name = ../refined-set-2016/4pfu/4pfu_pocket.pdb
REMARK  196 active torsions:
REMARK  status: ('A' for Active; 'I' for Inactive)
REMARK    1  A    between atoms: _1  and  _3
REMARK    2  A    between atoms: _3  and  _4
REMARK    3  A    between atoms: _3  and  _6
REMARK    4  A    between atoms: _6  and  _7
REMARK    5  A    between atoms: _12  and  _13
REMARK    6  A    between atoms: _15  and  _17
REMARK    7  A    between atoms: _17  and  _18
REMARK    8  A    between atoms: _20  and  _22
REMARK    9  A    between atoms: _22  and  _23
REMARK   10  A    between atoms: _25  and  _27
REMARK   11  A    between atoms: _27  and  _28
REMARK   12  A    between atoms: _27  and  _30
REMARK   13  A    between atoms: _30  and  _31
REMARK   14  A    between atoms: _33  and  _35
REMARK   15  A    between atoms: _35  and  _36
REMARK   16  A    between atoms: _35  and  _38
REMARK   17  A    between atoms: _38  and  _39
REMARK   18  A    between atoms: _42  and  _44
REMARK   19  A    between atoms: _44  and  _45
REMARK   20  A    between atoms: _44  and  _47
REMARK   21  A    between atoms: _47  and  _48
REMARK   22  A    between atoms: _59  and  _60
REMARK   23  A    between atoms: _65  and  _67
REMARK   24  A    between atoms: _67  and  _68
REMARK   25  A    between atoms: _67  and  _70
REMARK   26  A    between atoms: _70  and  _71
REMARK   27  A    between atoms: _73  and  _75
REMARK   28  A    between atoms: _75  and  _76
REMARK   29  A    between atoms: _75  and  _78
REMARK   30  A    between atoms: _78  and  _79
REMARK   31  A    between atoms: _84  and  _86
REMARK   32  A    between atoms: _86  and  _87
REMARK   33  A    between atoms: _86  and  _89
REMARK   34  A    between atoms: _89  and  _90
REMARK   35  A    between atoms: _95  and  _97
REMARK   36  A    between atoms: _97  and  _98
REMARK   37  A    between atoms: _101  and  _103
REMARK   38  A    between atoms: _103  and  _104
REMARK   39  A    between atoms: _103  and  _106
REMARK   40  A    between atoms: _106  and  _107
REMARK   41  A    between atoms: _109  and  _111
REMARK   42  A    between atoms: _111  and  _112
REMARK   43  A    between atoms: _111  and  _114
REMARK   44  A    between atoms: _114  and  _115
REMARK   45  A    between atoms: _120  and  _122
REMARK   46  A    between atoms: _122  and  _123
REMARK   47  A    between atoms: _122  and  _125
REMARK   48  A    between atoms: _125  and  _126
REMARK   49  A    between atoms: _132  and  _134
REMARK   50  A    between atoms: _134  and  _135
REMARK   51  A    between atoms: _134  and  _137
REMARK   52  A    between atoms: _137  and  _138
REMARK   53  A    between atoms: _138  and  _139
REMARK   54  A    between atoms: _141  and  _143
REMARK   55  A    between atoms: _143  and  _144
REMARK   56  A    between atoms: _143  and  _146
REMARK   57  A    between atoms: _146  and  _147
REMARK   58  A    between atoms: _150  and  _152
REMARK   59  A    between atoms: _152  and  _153
REMARK   60  A    between atoms: _152  and  _155
REMARK   61  A    between atoms: _155  and  _156
REMARK   62  A    between atoms: _158  and  _160
REMARK   63  A    between atoms: _160  and  _161
REMARK   64  A    between atoms: _160  and  _163
REMARK   65  A    between atoms: _163  and  _164
REMARK   66  A    between atoms: _167  and  _169
REMARK   67  A    between atoms: _169  and  _170
REMARK   68  A    between atoms: _169  and  _172
REMARK   69  A    between atoms: _175  and  _177
REMARK   70  A    between atoms: _177  and  _178
REMARK   71  A    between atoms: _177  and  _180
REMARK   72  A    between atoms: _183  and  _185
REMARK   73  A    between atoms: _185  and  _186
REMARK   74  A    between atoms: _185  and  _188
REMARK   75  A    between atoms: _188  and  _189
REMARK   76  A    between atoms: _194  and  _195
REMARK   77  A    between atoms: _197  and  _199
REMARK   78  A    between atoms: _199  and  _200
REMARK   79  A    between atoms: _199  and  _202
REMARK   80  A    between atoms: _205  and  _207
REMARK   81  A    between atoms: _207  and  _208
REMARK   82  A    between atoms: _207  and  _210
REMARK   83  A    between atoms: _213  and  _214
REMARK   84  A    between atoms: _219  and  _221
REMARK   85  A    between atoms: _221  and  _222
REMARK   86  A    between atoms: _221  and  _224
REMARK   87  A    between atoms: _224  and  _225
REMARK   88  A    between atoms: _230  and  _231
REMARK   89  A    between atoms: _233  and  _235
REMARK   90  A    between atoms: _235  and  _236
REMARK   91  A    between atoms: _238  and  _240
REMARK   92  A    between atoms: _240  and  _241
REMARK   93  A    between atoms: _240  and  _243
REMARK   94  A    between atoms: _243  and  _244
REMARK   95  A    between atoms: _254  and  _256
REMARK   96  A    between atoms: _256  and  _257
REMARK   97  A    between atoms: _256  and  _259
REMARK   98  A    between atoms: _259  and  _260
REMARK   99  A    between atoms: _263  and  _265
REMARK  100  A    between atoms: _265  and  _266
REMARK  101  A    between atoms: _265  and  _268
REMARK  102  A    between atoms: _268  and  _269
REMARK  103  A    between atoms: _272  and  _274
REMARK  104  A    between atoms: _274  and  _275
REMARK  105  A    between atoms: _274  and  _277
REMARK  106  A    between atoms: _277  and  _278
REMARK  107  A    between atoms: _288  and  _290
REMARK  108  A    between atoms: _290  and  _291
REMARK  109  A    between atoms: _290  and  _293
REMARK  110  A    between atoms: _293  and  _294
REMARK  111  A    between atoms: _294  and  _295
REMARK  112  A    between atoms: _297  and  _299
REMARK  113  A    between atoms: _299  and  _300
REMARK  114  A    between atoms: _299  and  _302
REMARK  115  A    between atoms: _302  and  _303
REMARK  116  A    between atoms: _305  and  _307
REMARK  117  A    between atoms: _307  and  _308
REMARK  118  A    between atoms: _307  and  _310
REMARK  119  A    between atoms: _310  and  _311
REMARK  120  A    between atoms: _316  and  _317
REMARK  121  A    between atoms: _319  and  _321
REMARK  122  A    between atoms: _321  and  _322
REMARK  123  A    between atoms: _321  and  _324
REMARK  124  A    between atoms: _324  and  _325
REMARK  125  A    between atoms: _330  and  _331
REMARK  126  A    between atoms: _333  and  _335
REMARK  127  A    between atoms: _335  and  _336
REMARK  128  A    between atoms: _335  and  _338
REMARK  129  A    between atoms: _338  and  _339
REMARK  130  A    between atoms: _339  and  _340
REMARK  131  A    between atoms: _342  and  _344
REMARK  132  A    between atoms: _344  and  _345
REMARK  133  A    between atoms: _344  and  _347
REMARK  134  A    between atoms: _347  and  _348
REMARK  135  A    between atoms: _353  and  _354
REMARK  136  A    between atoms: _356  and  _358
REMARK  137  A    between atoms: _358  and  _359
REMARK  138  A    between atoms: _358  and  _361
REMARK  139  A    between atoms: _361  and  _362
REMARK  140  A    between atoms: _362  and  _363
REMARK  141  A    between atoms: _365  and  _367
REMARK  142  A    between atoms: _367  and  _368
REMARK  143  A    between atoms: _367  and  _370
REMARK  144  A    between atoms: _370  and  _371
REMARK  145  A    between atoms: _376  and  _378
REMARK  146  A    between atoms: _378  and  _379
REMARK  147  A    between atoms: _382  and  _384
REMARK  148  A    between atoms: _384  and  _385
REMARK  149  A    between atoms: _384  and  _387
REMARK  150  A    between atoms: _387  and  _388
REMARK  151  A    between atoms: _393  and  _395
REMARK  152  A    between atoms: _395  and  _396
REMARK  153  A    between atoms: _398  and  _400
REMARK  154  A    between atoms: _400  and  _401
REMARK  155  A    between atoms: _400  and  _403
REMARK  156  A    between atoms: _403  and  _404
REMARK  157  A    between atoms: _407  and  _409
REMARK  158  A    between atoms: _409  and  _410
REMARK  159  A    between atoms: _412  and  _414
REMARK  160  A    between atoms: _414  and  _415
REMARK  161  A    between atoms: _414  and  _417
REMARK  162  A    between atoms: _417  and  _418
REMARK  163  A    between atoms: _428  and  _430
REMARK  164  A    between atoms: _430  and  _431
REMARK  165  A    between atoms: _433  and  _435
REMARK  166  A    between atoms: _435  and  _436
REMARK  167  A    between atoms: _439  and  _441
REMARK  168  A    between atoms: _441  and  _442
REMARK  169  A    between atoms: _441  and  _444
REMARK  170  A    between atoms: _444  and  _445
REMARK  171  A    between atoms: _445  and  _446
REMARK  172  A    between atoms: _448  and  _450
REMARK  173  A    between atoms: _450  and  _451
REMARK  174  A    between atoms: _454  and  _456
REMARK  175  A    between atoms: _456  and  _457
REMARK  176  A    between atoms: _456  and  _459
REMARK  177  A    between atoms: _459  and  _460
REMARK  178  A    between atoms: _466  and  _468
REMARK  179  A    between atoms: _468  and  _469
REMARK  180  A    between atoms: _468  and  _471
REMARK  181  A    between atoms: _473  and  _475
REMARK  182  A    between atoms: _475  and  _476
REMARK  183  A    between atoms: _478  and  _480
REMARK  184  A    between atoms: _480  and  _481
REMARK  185  A    between atoms: _480  and  _483
REMARK  186  A    between atoms: _483  and  _484
REMARK  187  A    between atoms: _494  and  _496
REMARK  188  A    between atoms: _496  and  _497
REMARK  189  A    between atoms: _500  and  _502
REMARK  190  A    between atoms: _502  and  _503
REMARK  191  A    between atoms: _502  and  _505
REMARK  192  A    between atoms: _505  and  _506
REMARK  193  A    between atoms: _511  and  _513
REMARK  194  A    between atoms: _513  and  _514
REMARK  195  A    between atoms: _513  and  _516
REMARK  196  A    between atoms: _516  and  _517
REMARK                            x       y       z     vdW  Elec       q    Type
REMARK                         _______ _______ _______ _____ _____    ______ ____
ROOT
ATOM      1  O   HOH     1     -30.094 -61.735  23.601  0.00  0.00    +0.000 OA
ENDROOT
TORSDOF 0
REMARK  Name = ../refined-set-2016/4pfu/4pfu_pocket.pdb
REMARK  196 active torsions:
REMARK  status: ('A' for Active; 'I' for Inactive)
REMARK    1  A    between atoms: _1  and  _3
REMARK    2  A    between atoms: _3  and  _4
REMARK    3  A    between atoms: _3  and  _6
REMARK    4  A    between atoms: _6  and  _7
REMARK    5  A    between atoms: _12  and  _13
REMARK    6  A    between atoms: _15  and  _17
REMARK    7  A    between atoms: _17  and  _18
REMARK    8  A    between atoms: _20  and  _22
REMARK    9  A    between atoms: _22  and  _23
REMARK   10  A    between atoms: _25  and  _27
REMARK   11  A    between atoms: _27  and  _28
REMARK   12  A    between atoms: _27  and  _30
REMARK   13  A    between atoms: _30  and  _31
REMARK   14  A    between atoms: _33  and  _35
REMARK   15  A    between atoms: _35  and  _36
REMARK   16  A    between atoms: _35  and  _38
REMARK   17  A    between atoms: _38  and  _39
REMARK   18  A    between atoms: _42  and  _44
REMARK   19  A    between atoms: _44  and  _45
REMARK   20  A    between atoms: _44  and  _47
REMARK   21  A    between atoms: _47  and  _48
REMARK   22  A    between atoms: _59  and  _60
REMARK   23  A    between atoms: _65  and  _67
REMARK   24  A    between atoms: _67  and  _68
REMARK   25  A    between atoms: _67  and  _70
REMARK   26  A    between atoms: _70  and  _71
REMARK   27  A    between atoms: _73  and  _75
REMARK   28  A    between atoms: _75  and  _76
REMARK   29  A    between atoms: _75  and  _78
REMARK   30  A    between atoms: _78  and  _79
REMARK   31  A    between atoms: _84  and  _86
REMARK   32  A    between atoms: _86  and  _87
REMARK   33  A    between atoms: _86  and  _89
REMARK   34  A    between atoms: _89  and  _90
REMARK   35  A    between atoms: _95  and  _97
REMARK   36  A    between atoms: _97  and  _98
REMARK   37  A    between atoms: _101  and  _103
REMARK   38  A    between atoms: _103  and  _104
REMARK   39  A    between atoms: _103  and  _106
REMARK   40  A    between atoms: _106  and  _107
REMARK   41  A    between atoms: _109  and  _111
REMARK   42  A    between atoms: _111  and  _112
REMARK   43  A    between atoms: _111  and  _114
REMARK   44  A    between atoms: _114  and  _115
REMARK   45  A    between atoms: _120  and  _122
REMARK   46  A    between atoms: _122  and  _123
REMARK   47  A    between atoms: _122  and  _125
REMARK   48  A    between atoms: _125  and  _126
REMARK   49  A    between atoms: _132  and  _134
REMARK   50  A    between atoms: _134  and  _135
REMARK   51  A    between atoms: _134  and  _137
REMARK   52  A    between atoms: _137  and  _138
REMARK   53  A    between atoms: _138  and  _139
REMARK   54  A    between atoms: _141  and  _143
REMARK   55  A    between atoms: _143  and  _144
REMARK   56  A    between atoms: _143  and  _146
REMARK   57  A    between atoms: _146  and  _147
REMARK   58  A    between atoms: _150  and  _152
REMARK   59  A    between atoms: _152  and  _153
REMARK   60  A    between atoms: _152  and  _155
REMARK   61  A    between atoms: _155  and  _156
REMARK   62  A    between atoms: _158  and  _160
REMARK   63  A    between atoms: _160  and  _161
REMARK   64  A    between atoms: _160  and  _163
REMARK   65  A    between atoms: _163  and  _164
REMARK   66  A    between atoms: _167  and  _169
REMARK   67  A    between atoms: _169  and  _170
REMARK   68  A    between atoms: _169  and  _172
REMARK   69  A    between atoms: _175  and  _177
REMARK   70  A    between atoms: _177  and  _178
REMARK   71  A    between atoms: _177  and  _180
REMARK   72  A    between atoms: _183  and  _185
REMARK   73  A    between atoms: _185  and  _186
REMARK   74  A    between atoms: _185  and  _188
REMARK   75  A    between atoms: _188  and  _189
REMARK   76  A    between atoms: _194  and  _195
REMARK   77  A    between atoms: _197  and  _199
REMARK   78  A    between atoms: _199  and  _200
REMARK   79  A    between atoms: _199  and  _202
REMARK   80  A    between atoms: _205  and  _207
REMARK   81  A    between atoms: _207  and  _208
REMARK   82  A    between atoms: _207  and  _210
REMARK   83  A    between atoms: _213  and  _214
REMARK   84  A    between atoms: _219  and  _221
REMARK   85  A    between atoms: _221  and  _222
REMARK   86  A    between atoms: _221  and  _224
REMARK   87  A    between atoms: _224  and  _225
REMARK   88  A    between atoms: _230  and  _231
REMARK   89  A    between atoms: _233  and  _235
REMARK   90  A    between atoms: _235  and  _236
REMARK   91  A    between atoms: _238  and  _240
REMARK   92  A    between atoms: _240  and  _241
REMARK   93  A    between atoms: _240  and  _243
REMARK   94  A    between atoms: _243  and  _244
REMARK   95  A    between atoms: _254  and  _256
REMARK   96  A    between atoms: _256  and  _257
REMARK   97  A    between atoms: _256  and  _259
REMARK   98  A    between atoms: _259  and  _260
REMARK   99  A    between atoms: _263  and  _265
REMARK  100  A    between atoms: _265  and  _266
REMARK  101  A    between atoms: _265  and  _268
REMARK  102  A    between atoms: _268  and  _269
REMARK  103  A    between atoms: _272  and  _274
REMARK  104  A    between atoms: _274  and  _275
REMARK  105  A    between atoms: _274  and  _277
REMARK  106  A    between atoms: _277  and  _278
REMARK  107  A    between atoms: _288  and  _290
REMARK  108  A    between atoms: _290  and  _291
REMARK  109  A    between atoms: _290  and  _293
REMARK  110  A    between atoms: _293  and  _294
REMARK  111  A    between atoms: _294  and  _295
REMARK  112  A    between atoms: _297  and  _299
REMARK  113  A    between atoms: _299  and  _300
REMARK  114  A    between atoms: _299  and  _302
REMARK  115  A    between atoms: _302  and  _303
REMARK  116  A    between atoms: _305  and  _307
REMARK  117  A    between atoms: _307  and  _308
REMARK  118  A    between atoms: _307  and  _310
REMARK  119  A    between atoms: _310  and  _311
REMARK  120  A    between atoms: _316  and  _317
REMARK  121  A    between atoms: _319  and  _321
REMARK  122  A    between atoms: _321  and  _322
REMARK  123  A    between atoms: _321  and  _324
REMARK  124  A    between atoms: _324  and  _325
REMARK  125  A    between atoms: _330  and  _331
REMARK  126  A    between atoms: _333  and  _335
REMARK  127  A    between atoms: _335  and  _336
REMARK  128  A    between atoms: _335  and  _338
REMARK  129  A    between atoms: _338  and  _339
REMARK  130  A    between atoms: _339  and  _340
REMARK  131  A    between atoms: _342  and  _344
REMARK  132  A    between atoms: _344  and  _345
REMARK  133  A    between atoms: _344  and  _347
REMARK  134  A    between atoms: _347  and  _348
REMARK  135  A    between atoms: _353  and  _354
REMARK  136  A    between atoms: _356  and  _358
REMARK  137  A    between atoms: _358  and  _359
REMARK  138  A    between atoms: _358  and  _361
REMARK  139  A    between atoms: _361  and  _362
REMARK  140  A    between atoms: _362  and  _363
REMARK  141  A    between atoms: _365  and  _367
REMARK  142  A    between atoms: _367  and  _368
REMARK  143  A    between atoms: _367  and  _370
REMARK  144  A    between atoms: _370  and  _371
REMARK  145  A    between atoms: _376  and  _378
REMARK  146  A    between atoms: _378  and  _379
REMARK  147  A    between atoms: _382  and  _384
REMARK  148  A    between atoms: _384  and  _385
REMARK  149  A    between atoms: _384  and  _387
REMARK  150  A    between atoms: _387  and  _388
REMARK  151  A    between atoms: _393  and  _395
REMARK  152  A    between atoms: _395  and  _396
REMARK  153  A    between atoms: _398  and  _400
REMARK  154  A    between atoms: _400  and  _401
REMARK  155  A    between atoms: _400  and  _403
REMARK  156  A    between atoms: _403  and  _404
REMARK  157  A    between atoms: _407  and  _409
REMARK  158  A    between atoms: _409  and  _410
REMARK  159  A    between atoms: _412  and  _414
REMARK  160  A    between atoms: _414  and  _415
REMARK  161  A    between atoms: _414  and  _417
REMARK  162  A    between atoms: _417  and  _418
REMARK  163  A    between atoms: _428  and  _430
REMARK  164  A    between atoms: _430  and  _431
REMARK  165  A    between atoms: _433  and  _435
REMARK  166  A    between atoms: _435  and  _436
REMARK  167  A    between atoms: _439  and  _441
REMARK  168  A    between atoms: _441  and  _442
REMARK  169  A    between atoms: _441  and  _444
REMARK  170  A    between atoms: _444  and  _445
REMARK  171  A    between atoms: _445  and  _446
REMARK  172  A    between atoms: _448  and  _450
REMARK  173  A    between atoms: _450  and  _451
REMARK  174  A    between atoms: _454  and  _456
REMARK  175  A    between atoms: _456  and  _457
REMARK  176  A    between atoms: _456  and  _459
REMARK  177  A    between atoms: _459  and  _460
REMARK  178  A    between atoms: _466  and  _468
REMARK  179  A    between atoms: _468  and  _469
REMARK  180  A    between atoms: _468  and  _471
REMARK  181  A    between atoms: _473  and  _475
REMARK  182  A    between atoms: _475  and  _476
REMARK  183  A    between atoms: _478  and  _480
REMARK  184  A    between atoms: _480  and  _481
REMARK  185  A    between atoms: _480  and  _483
REMARK  186  A    between atoms: _483  and  _484
REMARK  187  A    between atoms: _494  and  _496
REMARK  188  A    between atoms: _496  and  _497
REMARK  189  A    between atoms: _500  and  _502
REMARK  190  A    between atoms: _502  and  _503
REMARK  191  A    between atoms: _502  and  _505
REMARK  192  A    between atoms: _505  and  _506
REMARK  193  A    between atoms: _511  and  _513
REMARK  194  A    between atoms: _513  and  _514
REMARK  195  A    between atoms: _513  and  _516
REMARK  196  A    between atoms: _516  and  _517
REMARK                            x       y       z     vdW  Elec       q    Type
REMARK                         _______ _______ _______ _____ _____    ______ ____
ROOT
ATOM      1  O   HOH     1     -36.311 -52.241  13.856  0.00  0.00    +0.000 OA
ENDROOT
TORSDOF 0
