REMARK  Name = ../refined-set-2016/2epn/2epn_pocket.pdb
REMARK  158 active torsions:
REMARK  status: ('A' for Active; 'I' for Inactive)
REMARK    1  A    between atoms: _1  and  _3
REMARK    2  A    between atoms: _3  and  _4
REMARK    3  A    between atoms: _3  and  _6
REMARK    4  A    between atoms: _6  and  _7
REMARK    5  A    between atoms: _7  and  _8
REMARK    6  A    between atoms: _10  and  _12
REMARK    7  A    between atoms: _12  and  _13
REMARK    8  A    between atoms: _12  and  _15
REMARK    9  A    between atoms: _15  and  _16
REMARK   10  A    between atoms: _19  and  _21
REMARK   11  A    between atoms: _21  and  _22
REMARK   12  A    between atoms: _21  and  _24
REMARK   13  A    between atoms: _24  and  _25
REMARK   14  A    between atoms: _25  and  _26
REMARK   15  A    between atoms: _26  and  _27
REMARK   16  A    between atoms: _36  and  _38
REMARK   17  A    between atoms: _38  and  _39
REMARK   18  A    between atoms: _38  and  _41
REMARK   19  A    between atoms: _41  and  _42
REMARK   20  A    between atoms: _47  and  _48
REMARK   21  A    between atoms: _50  and  _52
REMARK   22  A    between atoms: _52  and  _53
REMARK   23  A    between atoms: _52  and  _55
REMARK   24  A    between atoms: _55  and  _56
REMARK   25  A    between atoms: _56  and  _57
REMARK   26  A    between atoms: _60  and  _62
REMARK   27  A    between atoms: _62  and  _63
REMARK   28  A    between atoms: _62  and  _65
REMARK   29  A    between atoms: _65  and  _66
REMARK   30  A    between atoms: _66  and  _67
REMARK   31  A    between atoms: _72  and  _74
REMARK   32  A    between atoms: _74  and  _75
REMARK   33  A    between atoms: _74  and  _77
REMARK   34  A    between atoms: _77  and  _78
REMARK   35  A    between atoms: _83  and  _85
REMARK   36  A    between atoms: _85  and  _86
REMARK   37  A    between atoms: _85  and  _88
REMARK   38  A    between atoms: _88  and  _89
REMARK   39  A    between atoms: _94  and  _96
REMARK   40  A    between atoms: _96  and  _97
REMARK   41  A    between atoms: _99  and  _101
REMARK   42  A    between atoms: _101  and  _102
REMARK   43  A    between atoms: _101  and  _104
REMARK   44  A    between atoms: _104  and  _105
REMARK   45  A    between atoms: _105  and  _106
REMARK   46  A    between atoms: _108  and  _110
REMARK   47  A    between atoms: _110  and  _111
REMARK   48  A    between atoms: _110  and  _113
REMARK   49  A    between atoms: _113  and  _114
REMARK   50  A    between atoms: _117  and  _119
REMARK   51  A    between atoms: _119  and  _120
REMARK   52  A    between atoms: _119  and  _122
REMARK   53  A    between atoms: _122  and  _123
REMARK   54  A    between atoms: _123  and  _124
REMARK   55  A    between atoms: _127  and  _129
REMARK   56  A    between atoms: _129  and  _130
REMARK   57  A    between atoms: _129  and  _132
REMARK   58  A    between atoms: _132  and  _133
REMARK   59  A    between atoms: _133  and  _134
REMARK   60  A    between atoms: _136  and  _138
REMARK   61  A    between atoms: _138  and  _139
REMARK   62  A    between atoms: _138  and  _141
REMARK   63  A    between atoms: _141  and  _142
REMARK   64  A    between atoms: _152  and  _154
REMARK   65  A    between atoms: _154  and  _155
REMARK   66  A    between atoms: _154  and  _157
REMARK   67  A    between atoms: _157  and  _158
REMARK   68  A    between atoms: _160  and  _162
REMARK   69  A    between atoms: _162  and  _163
REMARK   70  A    between atoms: _162  and  _165
REMARK   71  A    between atoms: _165  and  _166
REMARK   72  A    between atoms: _169  and  _171
REMARK   73  A    between atoms: _171  and  _172
REMARK   74  A    between atoms: _171  and  _174
REMARK   75  A    between atoms: _174  and  _175
REMARK   76  A    between atoms: _175  and  _176
REMARK   77  A    between atoms: _176  and  _177
REMARK   78  A    between atoms: _177  and  _178
REMARK   79  A    between atoms: _182  and  _184
REMARK   80  A    between atoms: _184  and  _185
REMARK   81  A    between atoms: _184  and  _187
REMARK   82  A    between atoms: _187  and  _188
REMARK   83  A    between atoms: _193  and  _194
REMARK   84  A    between atoms: _196  and  _198
REMARK   85  A    between atoms: _198  and  _199
REMARK   86  A    between atoms: _198  and  _201
REMARK   87  A    between atoms: _204  and  _206
REMARK   88  A    between atoms: _206  and  _207
REMARK   89  A    between atoms: _206  and  _209
REMARK   90  A    between atoms: _209  and  _210
REMARK   91  A    between atoms: _215  and  _216
REMARK   92  A    between atoms: _218  and  _220
REMARK   93  A    between atoms: _220  and  _221
REMARK   94  A    between atoms: _220  and  _223
REMARK   95  A    between atoms: _223  and  _224
REMARK   96  A    between atoms: _234  and  _236
REMARK   97  A    between atoms: _236  and  _237
REMARK   98  A    between atoms: _236  and  _239
REMARK   99  A    between atoms: _239  and  _240
REMARK  100  A    between atoms: _243  and  _245
REMARK  101  A    between atoms: _245  and  _246
REMARK  102  A    between atoms: _245  and  _248
REMARK  103  A    between atoms: _248  and  _249
REMARK  104  A    between atoms: _254  and  _255
REMARK  105  A    between atoms: _257  and  _259
REMARK  106  A    between atoms: _259  and  _260
REMARK  107  A    between atoms: _259  and  _262
REMARK  108  A    between atoms: _262  and  _263
REMARK  109  A    between atoms: _268  and  _269
REMARK  110  A    between atoms: _271  and  _273
REMARK  111  A    between atoms: _273  and  _274
REMARK  112  A    between atoms: _277  and  _279
REMARK  113  A    between atoms: _279  and  _280
REMARK  114  A    between atoms: _279  and  _282
REMARK  115  A    between atoms: _282  and  _283
REMARK  116  A    between atoms: _293  and  _295
REMARK  117  A    between atoms: _295  and  _296
REMARK  118  A    between atoms: _295  and  _298
REMARK  119  A    between atoms: _298  and  _299
REMARK  120  A    between atoms: _299  and  _300
REMARK  121  A    between atoms: _300  and  _301
REMARK  122  A    between atoms: _301  and  _302
REMARK  123  A    between atoms: _306  and  _308
REMARK  124  A    between atoms: _308  and  _309
REMARK  125  A    between atoms: _308  and  _311
REMARK  126  A    between atoms: _311  and  _312
REMARK  127  A    between atoms: _322  and  _324
REMARK  128  A    between atoms: _324  and  _325
REMARK  129  A    between atoms: _324  and  _327
REMARK  130  A    between atoms: _327  and  _328
REMARK  131  A    between atoms: _331  and  _333
REMARK  132  A    between atoms: _333  and  _334
REMARK  133  A    between atoms: _333  and  _336
REMARK  134  A    between atoms: _336  and  _337
REMARK  135  A    between atoms: _340  and  _342
REMARK  136  A    between atoms: _342  and  _343
REMARK  137  A    between atoms: _345  and  _347
REMARK  138  A    between atoms: _347  and  _348
REMARK  139  A    between atoms: _347  and  _350
REMARK  140  A    between atoms: _350  and  _351
REMARK  141  A    between atoms: _361  and  _363
REMARK  142  A    between atoms: _363  and  _364
REMARK  143  A    between atoms: _366  and  _368
REMARK  144  A    between atoms: _368  and  _369
REMARK  145  A    between atoms: _368  and  _371
REMARK  146  A    between atoms: _371  and  _372
REMARK  147  A    between atoms: _375  and  _377
REMARK  148  A    between atoms: _377  and  _378
REMARK  149  A    between atoms: _377  and  _380
REMARK  150  A    between atoms: _380  and  _381
REMARK  151  A    between atoms: _386  and  _388
REMARK  152  A    between atoms: _388  and  _389
REMARK  153  A    between atoms: _388  and  _391
REMARK  154  A    between atoms: _391  and  _392
REMARK  155  A    between atoms: _397  and  _399
REMARK  156  A    between atoms: _399  and  _400
REMARK  157  A    between atoms: _399  and  _402
REMARK  158  A    between atoms: _402  and  _403
REMARK                            x       y       z     vdW  Elec       q    Type
REMARK                         _______ _______ _______ _____ _____    ______ ____
ROOT
ATOM      1  CA  MET A   1      27.380   9.690  51.836  0.00  0.00    +0.134 C 
ENDROOT
BRANCH   1   2
ATOM      2  N   MET A   1      26.308   9.495  52.793  0.00  0.00    -0.239 NA
ATOM      3  H   MET A   1      25.344   9.328  52.441  0.00  0.00    +0.142 HD
ENDBRANCH   1   2
BRANCH   1   4
ATOM      4  C   MET A   1      27.182  10.996  51.103  0.00  0.00    +0.224 C 
ATOM      5  O   MET A   1      26.226  11.127  50.340  0.00  0.00    -0.287 OA
ENDBRANCH   1   4
BRANCH   1   6
ATOM      6  CB  MET A   1      27.358   8.557  50.804  0.00  0.00    +0.037 C 
BRANCH   6   7
ATOM      7  CG  MET A   1      28.532   8.571  49.826  0.00  0.00    +0.059 C 
BRANCH   7   8
ATOM      8  SD  MET A   1      28.105   7.754  48.295  0.00  0.00    -0.139 S 
ATOM      9  CE  MET A   1      27.151   9.047  47.501  0.00  0.00    +0.069 C 
ENDBRANCH   7   8
ENDBRANCH   6   7
ENDBRANCH   1   6
TORSDOF 5
REMARK  Name = ../refined-set-2016/2epn/2epn_pocket.pdb
REMARK  158 active torsions:
REMARK  status: ('A' for Active; 'I' for Inactive)
REMARK    1  A    between atoms: _1  and  _3
REMARK    2  A    between atoms: _3  and  _4
REMARK    3  A    between atoms: _3  and  _6
REMARK    4  A    between atoms: _6  and  _7
REMARK    5  A    between atoms: _7  and  _8
REMARK    6  A    between atoms: _10  and  _12
REMARK    7  A    between atoms: _12  and  _13
REMARK    8  A    between atoms: _12  and  _15
REMARK    9  A    between atoms: _15  and  _16
REMARK   10  A    between atoms: _19  and  _21
REMARK   11  A    between atoms: _21  and  _22
REMARK   12  A    between atoms: _21  and  _24
REMARK   13  A    between atoms: _24  and  _25
REMARK   14  A    between atoms: _25  and  _26
REMARK   15  A    between atoms: _26  and  _27
REMARK   16  A    between atoms: _36  and  _38
REMARK   17  A    between atoms: _38  and  _39
REMARK   18  A    between atoms: _38  and  _41
REMARK   19  A    between atoms: _41  and  _42
REMARK   20  A    between atoms: _47  and  _48
REMARK   21  A    between atoms: _50  and  _52
REMARK   22  A    between atoms: _52  and  _53
REMARK   23  A    between atoms: _52  and  _55
REMARK   24  A    between atoms: _55  and  _56
REMARK   25  A    between atoms: _56  and  _57
REMARK   26  A    between atoms: _60  and  _62
REMARK   27  A    between atoms: _62  and  _63
REMARK   28  A    between atoms: _62  and  _65
REMARK   29  A    between atoms: _65  and  _66
REMARK   30  A    between atoms: _66  and  _67
REMARK   31  A    between atoms: _72  and  _74
REMARK   32  A    between atoms: _74  and  _75
REMARK   33  A    between atoms: _74  and  _77
REMARK   34  A    between atoms: _77  and  _78
REMARK   35  A    between atoms: _83  and  _85
REMARK   36  A    between atoms: _85  and  _86
REMARK   37  A    between atoms: _85  and  _88
REMARK   38  A    between atoms: _88  and  _89
REMARK   39  A    between atoms: _94  and  _96
REMARK   40  A    between atoms: _96  and  _97
REMARK   41  A    between atoms: _99  and  _101
REMARK   42  A    between atoms: _101  and  _102
REMARK   43  A    between atoms: _101  and  _104
REMARK   44  A    between atoms: _104  and  _105
REMARK   45  A    between atoms: _105  and  _106
REMARK   46  A    between atoms: _108  and  _110
REMARK   47  A    between atoms: _110  and  _111
REMARK   48  A    between atoms: _110  and  _113
REMARK   49  A    between atoms: _113  and  _114
REMARK   50  A    between atoms: _117  and  _119
REMARK   51  A    between atoms: _119  and  _120
REMARK   52  A    between atoms: _119  and  _122
REMARK   53  A    between atoms: _122  and  _123
REMARK   54  A    between atoms: _123  and  _124
REMARK   55  A    between atoms: _127  and  _129
REMARK   56  A    between atoms: _129  and  _130
REMARK   57  A    between atoms: _129  and  _132
REMARK   58  A    between atoms: _132  and  _133
REMARK   59  A    between atoms: _133  and  _134
REMARK   60  A    between atoms: _136  and  _138
REMARK   61  A    between atoms: _138  and  _139
REMARK   62  A    between atoms: _138  and  _141
REMARK   63  A    between atoms: _141  and  _142
REMARK   64  A    between atoms: _152  and  _154
REMARK   65  A    between atoms: _154  and  _155
REMARK   66  A    between atoms: _154  and  _157
REMARK   67  A    between atoms: _157  and  _158
REMARK   68  A    between atoms: _160  and  _162
REMARK   69  A    between atoms: _162  and  _163
REMARK   70  A    between atoms: _162  and  _165
REMARK   71  A    between atoms: _165  and  _166
REMARK   72  A    between atoms: _169  and  _171
REMARK   73  A    between atoms: _171  and  _172
REMARK   74  A    between atoms: _171  and  _174
REMARK   75  A    between atoms: _174  and  _175
REMARK   76  A    between atoms: _175  and  _176
REMARK   77  A    between atoms: _176  and  _177
REMARK   78  A    between atoms: _177  and  _178
REMARK   79  A    between atoms: _182  and  _184
REMARK   80  A    between atoms: _184  and  _185
REMARK   81  A    between atoms: _184  and  _187
REMARK   82  A    between atoms: _187  and  _188
REMARK   83  A    between atoms: _193  and  _194
REMARK   84  A    between atoms: _196  and  _198
REMARK   85  A    between atoms: _198  and  _199
REMARK   86  A    between atoms: _198  and  _201
REMARK   87  A    between atoms: _204  and  _206
REMARK   88  A    between atoms: _206  and  _207
REMARK   89  A    between atoms: _206  and  _209
REMARK   90  A    between atoms: _209  and  _210
REMARK   91  A    between atoms: _215  and  _216
REMARK   92  A    between atoms: _218  and  _220
REMARK   93  A    between atoms: _220  and  _221
REMARK   94  A    between atoms: _220  and  _223
REMARK   95  A    between atoms: _223  and  _224
REMARK   96  A    between atoms: _234  and  _236
REMARK   97  A    between atoms: _236  and  _237
REMARK   98  A    between atoms: _236  and  _239
REMARK   99  A    between atoms: _239  and  _240
REMARK  100  A    between atoms: _243  and  _245
REMARK  101  A    between atoms: _245  and  _246
REMARK  102  A    between atoms: _245  and  _248
REMARK  103  A    between atoms: _248  and  _249
REMARK  104  A    between atoms: _254  and  _255
REMARK  105  A    between atoms: _257  and  _259
REMARK  106  A    between atoms: _259  and  _260
REMARK  107  A    between atoms: _259  and  _262
REMARK  108  A    between atoms: _262  and  _263
REMARK  109  A    between atoms: _268  and  _269
REMARK  110  A    between atoms: _271  and  _273
REMARK  111  A    between atoms: _273  and  _274
REMARK  112  A    between atoms: _277  and  _279
REMARK  113  A    between atoms: _279  and  _280
REMARK  114  A    between atoms: _279  and  _282
REMARK  115  A    between atoms: _282  and  _283
REMARK  116  A    between atoms: _293  and  _295
REMARK  117  A    between atoms: _295  and  _296
REMARK  118  A    between atoms: _295  and  _298
REMARK  119  A    between atoms: _298  and  _299
REMARK  120  A    between atoms: _299  and  _300
REMARK  121  A    between atoms: _300  and  _301
REMARK  122  A    between atoms: _301  and  _302
REMARK  123  A    between atoms: _306  and  _308
REMARK  124  A    between atoms: _308  and  _309
REMARK  125  A    between atoms: _308  and  _311
REMARK  126  A    between atoms: _311  and  _312
REMARK  127  A    between atoms: _322  and  _324
REMARK  128  A    between atoms: _324  and  _325
REMARK  129  A    between atoms: _324  and  _327
REMARK  130  A    between atoms: _327  and  _328
REMARK  131  A    between atoms: _331  and  _333
REMARK  132  A    between atoms: _333  and  _334
REMARK  133  A    between atoms: _333  and  _336
REMARK  134  A    between atoms: _336  and  _337
REMARK  135  A    between atoms: _340  and  _342
REMARK  136  A    between atoms: _342  and  _343
REMARK  137  A    between atoms: _345  and  _347
REMARK  138  A    between atoms: _347  and  _348
REMARK  139  A    between atoms: _347  and  _350
REMARK  140  A    between atoms: _350  and  _351
REMARK  141  A    between atoms: _361  and  _363
REMARK  142  A    between atoms: _363  and  _364
REMARK  143  A    between atoms: _366  and  _368
REMARK  144  A    between atoms: _368  and  _369
REMARK  145  A    between atoms: _368  and  _371
REMARK  146  A    between atoms: _371  and  _372
REMARK  147  A    between atoms: _375  and  _377
REMARK  148  A    between atoms: _377  and  _378
REMARK  149  A    between atoms: _377  and  _380
REMARK  150  A    between atoms: _380  and  _381
REMARK  151  A    between atoms: _386  and  _388
REMARK  152  A    between atoms: _388  and  _389
REMARK  153  A    between atoms: _388  and  _391
REMARK  154  A    between atoms: _391  and  _392
REMARK  155  A    between atoms: _397  and  _399
REMARK  156  A    between atoms: _399  and  _400
REMARK  157  A    between atoms: _399  and  _402
REMARK  158  A    between atoms: _402  and  _403
REMARK                            x       y       z     vdW  Elec       q    Type
REMARK                         _______ _______ _______ _____ _____    ______ ____
ROOT
ATOM      1  CA  ASP A   1      29.046  13.571  46.849  0.00  0.00    +0.144 C 
ENDROOT
BRANCH   1   2
ATOM      2  N   ASP A   1      28.358  13.575  48.129  0.00  0.00    -0.239 NA
ATOM      3  H   ASP A   1      27.422  14.022  48.199  0.00  0.00    +0.142 HD
ENDBRANCH   1   2
BRANCH   1   4
ATOM      4  C   ASP A   1      30.124  14.661  46.903  0.00  0.00    +0.225 C 
ATOM      5  O   ASP A   1      29.811  15.843  47.151  0.00  0.00    -0.287 OA
ENDBRANCH   1   4
BRANCH   1   6
ATOM      6  CB  ASP A   1      28.041  13.869  45.734  0.00  0.00    +0.139 C 
BRANCH   6   7
ATOM      7  CG  ASP A   1      28.538  13.492  44.344  0.00  0.00    +0.367 C 
ATOM      8  OD2 ASP A   1      29.762  13.476  44.122  0.00  0.00    -0.246 OA
ATOM      9  OD1 ASP A   1      27.704  13.291  43.427  0.00  0.00    -0.246 OA
ENDBRANCH   6   7
ENDBRANCH   1   6
TORSDOF 4
REMARK  Name = ../refined-set-2016/2epn/2epn_pocket.pdb
REMARK  158 active torsions:
REMARK  status: ('A' for Active; 'I' for Inactive)
REMARK    1  A    between atoms: _1  and  _3
REMARK    2  A    between atoms: _3  and  _4
REMARK    3  A    between atoms: _3  and  _6
REMARK    4  A    between atoms: _6  and  _7
REMARK    5  A    between atoms: _7  and  _8
REMARK    6  A    between atoms: _10  and  _12
REMARK    7  A    between atoms: _12  and  _13
REMARK    8  A    between atoms: _12  and  _15
REMARK    9  A    between atoms: _15  and  _16
REMARK   10  A    between atoms: _19  and  _21
REMARK   11  A    between atoms: _21  and  _22
REMARK   12  A    between atoms: _21  and  _24
REMARK   13  A    between atoms: _24  and  _25
REMARK   14  A    between atoms: _25  and  _26
REMARK   15  A    between atoms: _26  and  _27
REMARK   16  A    between atoms: _36  and  _38
REMARK   17  A    between atoms: _38  and  _39
REMARK   18  A    between atoms: _38  and  _41
REMARK   19  A    between atoms: _41  and  _42
REMARK   20  A    between atoms: _47  and  _48
REMARK   21  A    between atoms: _50  and  _52
REMARK   22  A    between atoms: _52  and  _53
REMARK   23  A    between atoms: _52  and  _55
REMARK   24  A    between atoms: _55  and  _56
REMARK   25  A    between atoms: _56  and  _57
REMARK   26  A    between atoms: _60  and  _62
REMARK   27  A    between atoms: _62  and  _63
REMARK   28  A    between atoms: _62  and  _65
REMARK   29  A    between atoms: _65  and  _66
REMARK   30  A    between atoms: _66  and  _67
REMARK   31  A    between atoms: _72  and  _74
REMARK   32  A    between atoms: _74  and  _75
REMARK   33  A    between atoms: _74  and  _77
REMARK   34  A    between atoms: _77  and  _78
REMARK   35  A    between atoms: _83  and  _85
REMARK   36  A    between atoms: _85  and  _86
REMARK   37  A    between atoms: _85  and  _88
REMARK   38  A    between atoms: _88  and  _89
REMARK   39  A    between atoms: _94  and  _96
REMARK   40  A    between atoms: _96  and  _97
REMARK   41  A    between atoms: _99  and  _101
REMARK   42  A    between atoms: _101  and  _102
REMARK   43  A    between atoms: _101  and  _104
REMARK   44  A    between atoms: _104  and  _105
REMARK   45  A    between atoms: _105  and  _106
REMARK   46  A    between atoms: _108  and  _110
REMARK   47  A    between atoms: _110  and  _111
REMARK   48  A    between atoms: _110  and  _113
REMARK   49  A    between atoms: _113  and  _114
REMARK   50  A    between atoms: _117  and  _119
REMARK   51  A    between atoms: _119  and  _120
REMARK   52  A    between atoms: _119  and  _122
REMARK   53  A    between atoms: _122  and  _123
REMARK   54  A    between atoms: _123  and  _124
REMARK   55  A    between atoms: _127  and  _129
REMARK   56  A    between atoms: _129  and  _130
REMARK   57  A    between atoms: _129  and  _132
REMARK   58  A    between atoms: _132  and  _133
REMARK   59  A    between atoms: _133  and  _134
REMARK   60  A    between atoms: _136  and  _138
REMARK   61  A    between atoms: _138  and  _139
REMARK   62  A    between atoms: _138  and  _141
REMARK   63  A    between atoms: _141  and  _142
REMARK   64  A    between atoms: _152  and  _154
REMARK   65  A    between atoms: _154  and  _155
REMARK   66  A    between atoms: _154  and  _157
REMARK   67  A    between atoms: _157  and  _158
REMARK   68  A    between atoms: _160  and  _162
REMARK   69  A    between atoms: _162  and  _163
REMARK   70  A    between atoms: _162  and  _165
REMARK   71  A    between atoms: _165  and  _166
REMARK   72  A    between atoms: _169  and  _171
REMARK   73  A    between atoms: _171  and  _172
REMARK   74  A    between atoms: _171  and  _174
REMARK   75  A    between atoms: _174  and  _175
REMARK   76  A    between atoms: _175  and  _176
REMARK   77  A    between atoms: _176  and  _177
REMARK   78  A    between atoms: _177  and  _178
REMARK   79  A    between atoms: _182  and  _184
REMARK   80  A    between atoms: _184  and  _185
REMARK   81  A    between atoms: _184  and  _187
REMARK   82  A    between atoms: _187  and  _188
REMARK   83  A    between atoms: _193  and  _194
REMARK   84  A    between atoms: _196  and  _198
REMARK   85  A    between atoms: _198  and  _199
REMARK   86  A    between atoms: _198  and  _201
REMARK   87  A    between atoms: _204  and  _206
REMARK   88  A    between atoms: _206  and  _207
REMARK   89  A    between atoms: _206  and  _209
REMARK   90  A    between atoms: _209  and  _210
REMARK   91  A    between atoms: _215  and  _216
REMARK   92  A    between atoms: _218  and  _220
REMARK   93  A    between atoms: _220  and  _221
REMARK   94  A    between atoms: _220  and  _223
REMARK   95  A    between atoms: _223  and  _224
REMARK   96  A    between atoms: _234  and  _236
REMARK   97  A    between atoms: _236  and  _237
REMARK   98  A    between atoms: _236  and  _239
REMARK   99  A    between atoms: _239  and  _240
REMARK  100  A    between atoms: _243  and  _245
REMARK  101  A    between atoms: _245  and  _246
REMARK  102  A    between atoms: _245  and  _248
REMARK  103  A    between atoms: _248  and  _249
REMARK  104  A    between atoms: _254  and  _255
REMARK  105  A    between atoms: _257  and  _259
REMARK  106  A    between atoms: _259  and  _260
REMARK  107  A    between atoms: _259  and  _262
REMARK  108  A    between atoms: _262  and  _263
REMARK  109  A    between atoms: _268  and  _269
REMARK  110  A    between atoms: _271  and  _273
REMARK  111  A    between atoms: _273  and  _274
REMARK  112  A    between atoms: _277  and  _279
REMARK  113  A    between atoms: _279  and  _280
REMARK  114  A    between atoms: _279  and  _282
REMARK  115  A    between atoms: _282  and  _283
REMARK  116  A    between atoms: _293  and  _295
REMARK  117  A    between atoms: _295  and  _296
REMARK  118  A    between atoms: _295  and  _298
REMARK  119  A    between atoms: _298  and  _299
REMARK  120  A    between atoms: _299  and  _300
REMARK  121  A    between atoms: _300  and  _301
REMARK  122  A    between atoms: _301  and  _302
REMARK  123  A    between atoms: _306  and  _308
REMARK  124  A    between atoms: _308  and  _309
REMARK  125  A    between atoms: _308  and  _311
REMARK  126  A    between atoms: _311  and  _312
REMARK  127  A    between atoms: _322  and  _324
REMARK  128  A    between atoms: _324  and  _325
REMARK  129  A    between atoms: _324  and  _327
REMARK  130  A    between atoms: _327  and  _328
REMARK  131  A    between atoms: _331  and  _333
REMARK  132  A    between atoms: _333  and  _334
REMARK  133  A    between atoms: _333  and  _336
REMARK  134  A    between atoms: _336  and  _337
REMARK  135  A    between atoms: _340  and  _342
REMARK  136  A    between atoms: _342  and  _343
REMARK  137  A    between atoms: _345  and  _347
REMARK  138  A    between atoms: _347  and  _348
REMARK  139  A    between atoms: _347  and  _350
REMARK  140  A    between atoms: _350  and  _351
REMARK  141  A    between atoms: _361  and  _363
REMARK  142  A    between atoms: _363  and  _364
REMARK  143  A    between atoms: _366  and  _368
REMARK  144  A    between atoms: _368  and  _369
REMARK  145  A    between atoms: _368  and  _371
REMARK  146  A    between atoms: _371  and  _372
REMARK  147  A    between atoms: _375  and  _377
REMARK  148  A    between atoms: _377  and  _378
REMARK  149  A    between atoms: _377  and  _380
REMARK  150  A    between atoms: _380  and  _381
REMARK  151  A    between atoms: _386  and  _388
REMARK  152  A    between atoms: _388  and  _389
REMARK  153  A    between atoms: _388  and  _391
REMARK  154  A    between atoms: _391  and  _392
REMARK  155  A    between atoms: _397  and  _399
REMARK  156  A    between atoms: _399  and  _400
REMARK  157  A    between atoms: _399  and  _402
REMARK  158  A    between atoms: _402  and  _403
REMARK                            x       y       z     vdW  Elec       q    Type
REMARK                         _______ _______ _______ _____ _____    ______ ____
ROOT
ATOM      1  NE  ARG A   1      28.784  12.744  39.655  0.00  0.00    -0.265 N 
ATOM      2  CZ  ARG A   1      27.947  11.753  39.949  0.00  0.00    +0.342 C 
ATOM      3  NH2 ARG A   1      27.564  11.515  41.183  0.00  0.00    -0.292 N 
ATOM      4 HH21 ARG A   1      27.916  12.109  41.961  0.00  0.00    +0.255 HD
ATOM      5 HH22 ARG A   1      26.908  10.733  41.382  0.00  0.00    +0.255 HD
ATOM      6  NH1 ARG A   1      27.478  10.980  38.988  0.00  0.00    -0.292 N 
ATOM      7 HH11 ARG A   1      26.823  10.205  39.217  0.00  0.00    +0.255 HD
ATOM      8 HH12 ARG A   1      27.763  11.146  38.002  0.00  0.00    +0.255 HD
ATOM      9  HE  ARG A   1      29.087  12.836  38.664  0.00  0.00    +0.259 HD
ENDROOT
BRANCH   1  10
ATOM     10  CD  ARG A   1      29.315  13.720  40.617  0.00  0.00    +0.174 C 
BRANCH  10  11
ATOM     11  CG  ARG A   1      28.383  14.963  40.615  0.00  0.00    +0.045 C 
BRANCH  11  12
ATOM     12  CB  ARG A   1      28.906  16.166  41.384  0.00  0.00    +0.029 C 
BRANCH  12  13
ATOM     13  CA  ARG A   1      30.364  16.478  41.077  0.00  0.00    +0.133 C 
BRANCH  13  14
ATOM     14  N   ARG A   1      31.177  15.800  42.059  0.00  0.00    -0.239 NA
ATOM     15  H   ARG A   1      30.881  15.813  43.056  0.00  0.00    +0.142 HD
ENDBRANCH  13  14
BRANCH  13  16
ATOM     16  C   ARG A   1      30.650  17.987  41.006  0.00  0.00    +0.224 C 
ATOM     17  O   ARG A   1      29.853  18.753  40.428  0.00  0.00    -0.287 OA
ENDBRANCH  13  16
ENDBRANCH  12  13
ENDBRANCH  11  12
ENDBRANCH  10  11
ENDBRANCH   1  10
TORSDOF 6
REMARK  Name = ../refined-set-2016/2epn/2epn_pocket.pdb
REMARK  158 active torsions:
REMARK  status: ('A' for Active; 'I' for Inactive)
REMARK    1  A    between atoms: _1  and  _3
REMARK    2  A    between atoms: _3  and  _4
REMARK    3  A    between atoms: _3  and  _6
REMARK    4  A    between atoms: _6  and  _7
REMARK    5  A    between atoms: _7  and  _8
REMARK    6  A    between atoms: _10  and  _12
REMARK    7  A    between atoms: _12  and  _13
REMARK    8  A    between atoms: _12  and  _15
REMARK    9  A    between atoms: _15  and  _16
REMARK   10  A    between atoms: _19  and  _21
REMARK   11  A    between atoms: _21  and  _22
REMARK   12  A    between atoms: _21  and  _24
REMARK   13  A    between atoms: _24  and  _25
REMARK   14  A    between atoms: _25  and  _26
REMARK   15  A    between atoms: _26  and  _27
REMARK   16  A    between atoms: _36  and  _38
REMARK   17  A    between atoms: _38  and  _39
REMARK   18  A    between atoms: _38  and  _41
REMARK   19  A    between atoms: _41  and  _42
REMARK   20  A    between atoms: _47  and  _48
REMARK   21  A    between atoms: _50  and  _52
REMARK   22  A    between atoms: _52  and  _53
REMARK   23  A    between atoms: _52  and  _55
REMARK   24  A    between atoms: _55  and  _56
REMARK   25  A    between atoms: _56  and  _57
REMARK   26  A    between atoms: _60  and  _62
REMARK   27  A    between atoms: _62  and  _63
REMARK   28  A    between atoms: _62  and  _65
REMARK   29  A    between atoms: _65  and  _66
REMARK   30  A    between atoms: _66  and  _67
REMARK   31  A    between atoms: _72  and  _74
REMARK   32  A    between atoms: _74  and  _75
REMARK   33  A    between atoms: _74  and  _77
REMARK   34  A    between atoms: _77  and  _78
REMARK   35  A    between atoms: _83  and  _85
REMARK   36  A    between atoms: _85  and  _86
REMARK   37  A    between atoms: _85  and  _88
REMARK   38  A    between atoms: _88  and  _89
REMARK   39  A    between atoms: _94  and  _96
REMARK   40  A    between atoms: _96  and  _97
REMARK   41  A    between atoms: _99  and  _101
REMARK   42  A    between atoms: _101  and  _102
REMARK   43  A    between atoms: _101  and  _104
REMARK   44  A    between atoms: _104  and  _105
REMARK   45  A    between atoms: _105  and  _106
REMARK   46  A    between atoms: _108  and  _110
REMARK   47  A    between atoms: _110  and  _111
REMARK   48  A    between atoms: _110  and  _113
REMARK   49  A    between atoms: _113  and  _114
REMARK   50  A    between atoms: _117  and  _119
REMARK   51  A    between atoms: _119  and  _120
REMARK   52  A    between atoms: _119  and  _122
REMARK   53  A    between atoms: _122  and  _123
REMARK   54  A    between atoms: _123  and  _124
REMARK   55  A    between atoms: _127  and  _129
REMARK   56  A    between atoms: _129  and  _130
REMARK   57  A    between atoms: _129  and  _132
REMARK   58  A    between atoms: _132  and  _133
REMARK   59  A    between atoms: _133  and  _134
REMARK   60  A    between atoms: _136  and  _138
REMARK   61  A    between atoms: _138  and  _139
REMARK   62  A    between atoms: _138  and  _141
REMARK   63  A    between atoms: _141  and  _142
REMARK   64  A    between atoms: _152  and  _154
REMARK   65  A    between atoms: _154  and  _155
REMARK   66  A    between atoms: _154  and  _157
REMARK   67  A    between atoms: _157  and  _158
REMARK   68  A    between atoms: _160  and  _162
REMARK   69  A    between atoms: _162  and  _163
REMARK   70  A    between atoms: _162  and  _165
REMARK   71  A    between atoms: _165  and  _166
REMARK   72  A    between atoms: _169  and  _171
REMARK   73  A    between atoms: _171  and  _172
REMARK   74  A    between atoms: _171  and  _174
REMARK   75  A    between atoms: _174  and  _175
REMARK   76  A    between atoms: _175  and  _176
REMARK   77  A    between atoms: _176  and  _177
REMARK   78  A    between atoms: _177  and  _178
REMARK   79  A    between atoms: _182  and  _184
REMARK   80  A    between atoms: _184  and  _185
REMARK   81  A    between atoms: _184  and  _187
REMARK   82  A    between atoms: _187  and  _188
REMARK   83  A    between atoms: _193  and  _194
REMARK   84  A    between atoms: _196  and  _198
REMARK   85  A    between atoms: _198  and  _199
REMARK   86  A    between atoms: _198  and  _201
REMARK   87  A    between atoms: _204  and  _206
REMARK   88  A    between atoms: _206  and  _207
REMARK   89  A    between atoms: _206  and  _209
REMARK   90  A    between atoms: _209  and  _210
REMARK   91  A    between atoms: _215  and  _216
REMARK   92  A    between atoms: _218  and  _220
REMARK   93  A    between atoms: _220  and  _221
REMARK   94  A    between atoms: _220  and  _223
REMARK   95  A    between atoms: _223  and  _224
REMARK   96  A    between atoms: _234  and  _236
REMARK   97  A    between atoms: _236  and  _237
REMARK   98  A    between atoms: _236  and  _239
REMARK   99  A    between atoms: _239  and  _240
REMARK  100  A    between atoms: _243  and  _245
REMARK  101  A    between atoms: _245  and  _246
REMARK  102  A    between atoms: _245  and  _248
REMARK  103  A    between atoms: _248  and  _249
REMARK  104  A    between atoms: _254  and  _255
REMARK  105  A    between atoms: _257  and  _259
REMARK  106  A    between atoms: _259  and  _260
REMARK  107  A    between atoms: _259  and  _262
REMARK  108  A    between atoms: _262  and  _263
REMARK  109  A    between atoms: _268  and  _269
REMARK  110  A    between atoms: _271  and  _273
REMARK  111  A    between atoms: _273  and  _274
REMARK  112  A    between atoms: _277  and  _279
REMARK  113  A    between atoms: _279  and  _280
REMARK  114  A    between atoms: _279  and  _282
REMARK  115  A    between atoms: _282  and  _283
REMARK  116  A    between atoms: _293  and  _295
REMARK  117  A    between atoms: _295  and  _296
REMARK  118  A    between atoms: _295  and  _298
REMARK  119  A    between atoms: _298  and  _299
REMARK  120  A    between atoms: _299  and  _300
REMARK  121  A    between atoms: _300  and  _301
REMARK  122  A    between atoms: _301  and  _302
REMARK  123  A    between atoms: _306  and  _308
REMARK  124  A    between atoms: _308  and  _309
REMARK  125  A    between atoms: _308  and  _311
REMARK  126  A    between atoms: _311  and  _312
REMARK  127  A    between atoms: _322  and  _324
REMARK  128  A    between atoms: _324  and  _325
REMARK  129  A    between atoms: _324  and  _327
REMARK  130  A    between atoms: _327  and  _328
REMARK  131  A    between atoms: _331  and  _333
REMARK  132  A    between atoms: _333  and  _334
REMARK  133  A    between atoms: _333  and  _336
REMARK  134  A    between atoms: _336  and  _337
REMARK  135  A    between atoms: _340  and  _342
REMARK  136  A    between atoms: _342  and  _343
REMARK  137  A    between atoms: _345  and  _347
REMARK  138  A    between atoms: _347  and  _348
REMARK  139  A    between atoms: _347  and  _350
REMARK  140  A    between atoms: _350  and  _351
REMARK  141  A    between atoms: _361  and  _363
REMARK  142  A    between atoms: _363  and  _364
REMARK  143  A    between atoms: _366  and  _368
REMARK  144  A    between atoms: _368  and  _369
REMARK  145  A    between atoms: _368  and  _371
REMARK  146  A    between atoms: _371  and  _372
REMARK  147  A    between atoms: _375  and  _377
REMARK  148  A    between atoms: _377  and  _378
REMARK  149  A    between atoms: _377  and  _380
REMARK  150  A    between atoms: _380  and  _381
REMARK  151  A    between atoms: _386  and  _388
REMARK  152  A    between atoms: _388  and  _389
REMARK  153  A    between atoms: _388  and  _391
REMARK  154  A    between atoms: _391  and  _392
REMARK  155  A    between atoms: _397  and  _399
REMARK  156  A    between atoms: _399  and  _400
REMARK  157  A    between atoms: _399  and  _402
REMARK  158  A    between atoms: _402  and  _403
REMARK                            x       y       z     vdW  Elec       q    Type
REMARK                         _______ _______ _______ _____ _____    ______ ____
ROOT
ATOM      1  CG  TYR A   1      30.796   9.409  45.199  0.00  0.00    -0.020 A 
ATOM      2  CD2 TYR A   1      31.012   8.084  44.911  0.00  0.00    -0.001 A 
ATOM      3  CE2 TYR A   1      31.071   7.633  43.613  0.00  0.00    +0.036 A 
ATOM      4  CZ  TYR A   1      30.921   8.540  42.546  0.00  0.00    +0.134 A 
ATOM      5  CE1 TYR A   1      30.725   9.870  42.808  0.00  0.00    +0.036 A 
ATOM      6  CD1 TYR A   1      30.673  10.294  44.122  0.00  0.00    -0.001 A 
ENDROOT
BRANCH   4   7
ATOM      7  OH  TYR A   1      30.965   8.125  41.225  0.00  0.00    -0.506 OA
ATOM      8  HH  TYR A   1      30.840   8.907  40.630  0.00  0.00    +0.292 HD
ENDBRANCH   4   7
BRANCH   1   9
ATOM      9  CB  TYR A   1      30.731   9.902  46.636  0.00  0.00    +0.051 C 
BRANCH   9  10
ATOM     10  CA  TYR A   1      32.107   9.904  47.344  0.00  0.00    +0.137 C 
BRANCH  10  11
ATOM     11  N   TYR A   1      32.012  10.494  48.677  0.00  0.00    -0.239 NA
ATOM     12  H   TYR A   1      31.341  11.275  48.824  0.00  0.00    +0.142 HD
ENDBRANCH  10  11
BRANCH  10  13
ATOM     13  C   TYR A   1      33.142  10.689  46.550  0.00  0.00    +0.224 C 
ATOM     14  O   TYR A   1      32.938  11.867  46.209  0.00  0.00    -0.287 OA
ENDBRANCH  10  13
ENDBRANCH   9  10
ENDBRANCH   1   9
TORSDOF 5
REMARK  Name = ../refined-set-2016/2epn/2epn_pocket.pdb
REMARK  158 active torsions:
REMARK  status: ('A' for Active; 'I' for Inactive)
REMARK    1  A    between atoms: _1  and  _3
REMARK    2  A    between atoms: _3  and  _4
REMARK    3  A    between atoms: _3  and  _6
REMARK    4  A    between atoms: _6  and  _7
REMARK    5  A    between atoms: _7  and  _8
REMARK    6  A    between atoms: _10  and  _12
REMARK    7  A    between atoms: _12  and  _13
REMARK    8  A    between atoms: _12  and  _15
REMARK    9  A    between atoms: _15  and  _16
REMARK   10  A    between atoms: _19  and  _21
REMARK   11  A    between atoms: _21  and  _22
REMARK   12  A    between atoms: _21  and  _24
REMARK   13  A    between atoms: _24  and  _25
REMARK   14  A    between atoms: _25  and  _26
REMARK   15  A    between atoms: _26  and  _27
REMARK   16  A    between atoms: _36  and  _38
REMARK   17  A    between atoms: _38  and  _39
REMARK   18  A    between atoms: _38  and  _41
REMARK   19  A    between atoms: _41  and  _42
REMARK   20  A    between atoms: _47  and  _48
REMARK   21  A    between atoms: _50  and  _52
REMARK   22  A    between atoms: _52  and  _53
REMARK   23  A    between atoms: _52  and  _55
REMARK   24  A    between atoms: _55  and  _56
REMARK   25  A    between atoms: _56  and  _57
REMARK   26  A    between atoms: _60  and  _62
REMARK   27  A    between atoms: _62  and  _63
REMARK   28  A    between atoms: _62  and  _65
REMARK   29  A    between atoms: _65  and  _66
REMARK   30  A    between atoms: _66  and  _67
REMARK   31  A    between atoms: _72  and  _74
REMARK   32  A    between atoms: _74  and  _75
REMARK   33  A    between atoms: _74  and  _77
REMARK   34  A    between atoms: _77  and  _78
REMARK   35  A    between atoms: _83  and  _85
REMARK   36  A    between atoms: _85  and  _86
REMARK   37  A    between atoms: _85  and  _88
REMARK   38  A    between atoms: _88  and  _89
REMARK   39  A    between atoms: _94  and  _96
REMARK   40  A    between atoms: _96  and  _97
REMARK   41  A    between atoms: _99  and  _101
REMARK   42  A    between atoms: _101  and  _102
REMARK   43  A    between atoms: _101  and  _104
REMARK   44  A    between atoms: _104  and  _105
REMARK   45  A    between atoms: _105  and  _106
REMARK   46  A    between atoms: _108  and  _110
REMARK   47  A    between atoms: _110  and  _111
REMARK   48  A    between atoms: _110  and  _113
REMARK   49  A    between atoms: _113  and  _114
REMARK   50  A    between atoms: _117  and  _119
REMARK   51  A    between atoms: _119  and  _120
REMARK   52  A    between atoms: _119  and  _122
REMARK   53  A    between atoms: _122  and  _123
REMARK   54  A    between atoms: _123  and  _124
REMARK   55  A    between atoms: _127  and  _129
REMARK   56  A    between atoms: _129  and  _130
REMARK   57  A    between atoms: _129  and  _132
REMARK   58  A    between atoms: _132  and  _133
REMARK   59  A    between atoms: _133  and  _134
REMARK   60  A    between atoms: _136  and  _138
REMARK   61  A    between atoms: _138  and  _139
REMARK   62  A    between atoms: _138  and  _141
REMARK   63  A    between atoms: _141  and  _142
REMARK   64  A    between atoms: _152  and  _154
REMARK   65  A    between atoms: _154  and  _155
REMARK   66  A    between atoms: _154  and  _157
REMARK   67  A    between atoms: _157  and  _158
REMARK   68  A    between atoms: _160  and  _162
REMARK   69  A    between atoms: _162  and  _163
REMARK   70  A    between atoms: _162  and  _165
REMARK   71  A    between atoms: _165  and  _166
REMARK   72  A    between atoms: _169  and  _171
REMARK   73  A    between atoms: _171  and  _172
REMARK   74  A    between atoms: _171  and  _174
REMARK   75  A    between atoms: _174  and  _175
REMARK   76  A    between atoms: _175  and  _176
REMARK   77  A    between atoms: _176  and  _177
REMARK   78  A    between atoms: _177  and  _178
REMARK   79  A    between atoms: _182  and  _184
REMARK   80  A    between atoms: _184  and  _185
REMARK   81  A    between atoms: _184  and  _187
REMARK   82  A    between atoms: _187  and  _188
REMARK   83  A    between atoms: _193  and  _194
REMARK   84  A    between atoms: _196  and  _198
REMARK   85  A    between atoms: _198  and  _199
REMARK   86  A    between atoms: _198  and  _201
REMARK   87  A    between atoms: _204  and  _206
REMARK   88  A    between atoms: _206  and  _207
REMARK   89  A    between atoms: _206  and  _209
REMARK   90  A    between atoms: _209  and  _210
REMARK   91  A    between atoms: _215  and  _216
REMARK   92  A    between atoms: _218  and  _220
REMARK   93  A    between atoms: _220  and  _221
REMARK   94  A    between atoms: _220  and  _223
REMARK   95  A    between atoms: _223  and  _224
REMARK   96  A    between atoms: _234  and  _236
REMARK   97  A    between atoms: _236  and  _237
REMARK   98  A    between atoms: _236  and  _239
REMARK   99  A    between atoms: _239  and  _240
REMARK  100  A    between atoms: _243  and  _245
REMARK  101  A    between atoms: _245  and  _246
REMARK  102  A    between atoms: _245  and  _248
REMARK  103  A    between atoms: _248  and  _249
REMARK  104  A    between atoms: _254  and  _255
REMARK  105  A    between atoms: _257  and  _259
REMARK  106  A    between atoms: _259  and  _260
REMARK  107  A    between atoms: _259  and  _262
REMARK  108  A    between atoms: _262  and  _263
REMARK  109  A    between atoms: _268  and  _269
REMARK  110  A    between atoms: _271  and  _273
REMARK  111  A    between atoms: _273  and  _274
REMARK  112  A    between atoms: _277  and  _279
REMARK  113  A    between atoms: _279  and  _280
REMARK  114  A    between atoms: _279  and  _282
REMARK  115  A    between atoms: _282  and  _283
REMARK  116  A    between atoms: _293  and  _295
REMARK  117  A    between atoms: _295  and  _296
REMARK  118  A    between atoms: _295  and  _298
REMARK  119  A    between atoms: _298  and  _299
REMARK  120  A    between atoms: _299  and  _300
REMARK  121  A    between atoms: _300  and  _301
REMARK  122  A    between atoms: _301  and  _302
REMARK  123  A    between atoms: _306  and  _308
REMARK  124  A    between atoms: _308  and  _309
REMARK  125  A    between atoms: _308  and  _311
REMARK  126  A    between atoms: _311  and  _312
REMARK  127  A    between atoms: _322  and  _324
REMARK  128  A    between atoms: _324  and  _325
REMARK  129  A    between atoms: _324  and  _327
REMARK  130  A    between atoms: _327  and  _328
REMARK  131  A    between atoms: _331  and  _333
REMARK  132  A    between atoms: _333  and  _334
REMARK  133  A    between atoms: _333  and  _336
REMARK  134  A    between atoms: _336  and  _337
REMARK  135  A    between atoms: _340  and  _342
REMARK  136  A    between atoms: _342  and  _343
REMARK  137  A    between atoms: _345  and  _347
REMARK  138  A    between atoms: _347  and  _348
REMARK  139  A    between atoms: _347  and  _350
REMARK  140  A    between atoms: _350  and  _351
REMARK  141  A    between atoms: _361  and  _363
REMARK  142  A    between atoms: _363  and  _364
REMARK  143  A    between atoms: _366  and  _368
REMARK  144  A    between atoms: _368  and  _369
REMARK  145  A    between atoms: _368  and  _371
REMARK  146  A    between atoms: _371  and  _372
REMARK  147  A    between atoms: _375  and  _377
REMARK  148  A    between atoms: _377  and  _378
REMARK  149  A    between atoms: _377  and  _380
REMARK  150  A    between atoms: _380  and  _381
REMARK  151  A    between atoms: _386  and  _388
REMARK  152  A    between atoms: _388  and  _389
REMARK  153  A    between atoms: _388  and  _391
REMARK  154  A    between atoms: _391  and  _392
REMARK  155  A    between atoms: _397  and  _399
REMARK  156  A    between atoms: _399  and  _400
REMARK  157  A    between atoms: _399  and  _402
REMARK  158  A    between atoms: _402  and  _403
REMARK                            x       y       z     vdW  Elec       q    Type
REMARK                         _______ _______ _______ _____ _____    ______ ____
ROOT
ATOM      1  CA  GLU A   1      36.015   9.523  42.103  0.00  0.00    +0.134 C 
ENDROOT
BRANCH   1   2
ATOM      2  N   GLU A   1      35.576  10.199  43.307  0.00  0.00    -0.239 NA
ATOM      3  H   GLU A   1      34.961  11.034  43.226  0.00  0.00    +0.142 HD
ENDBRANCH   1   2
BRANCH   1   4
ATOM      4  C   GLU A   1      37.513   9.765  41.930  0.00  0.00    +0.224 C 
ATOM      5  O   GLU A   1      38.321   8.824  41.902  0.00  0.00    -0.287 OA
ENDBRANCH   1   4
BRANCH   1   6
ATOM      6  CB  GLU A   1      35.267  10.046  40.871  0.00  0.00    +0.037 C 
BRANCH   6   7
ATOM      7  CG  GLU A   1      33.754   9.757  40.940  0.00  0.00    +0.116 C 
BRANCH   7   8
ATOM      8  CD  GLU A   1      32.929  10.441  39.876  0.00  0.00    +0.365 C 
ATOM      9  OE2 GLU A   1      31.736  10.085  39.783  0.00  0.00    -0.246 OA
ATOM     10  OE1 GLU A   1      33.451  11.282  39.106  0.00  0.00    -0.246 OA
ENDBRANCH   7   8
ENDBRANCH   6   7
ENDBRANCH   1   6
TORSDOF 5
REMARK  Name = ../refined-set-2016/2epn/2epn_pocket.pdb
REMARK  158 active torsions:
REMARK  status: ('A' for Active; 'I' for Inactive)
REMARK    1  A    between atoms: _1  and  _3
REMARK    2  A    between atoms: _3  and  _4
REMARK    3  A    between atoms: _3  and  _6
REMARK    4  A    between atoms: _6  and  _7
REMARK    5  A    between atoms: _7  and  _8
REMARK    6  A    between atoms: _10  and  _12
REMARK    7  A    between atoms: _12  and  _13
REMARK    8  A    between atoms: _12  and  _15
REMARK    9  A    between atoms: _15  and  _16
REMARK   10  A    between atoms: _19  and  _21
REMARK   11  A    between atoms: _21  and  _22
REMARK   12  A    between atoms: _21  and  _24
REMARK   13  A    between atoms: _24  and  _25
REMARK   14  A    between atoms: _25  and  _26
REMARK   15  A    between atoms: _26  and  _27
REMARK   16  A    between atoms: _36  and  _38
REMARK   17  A    between atoms: _38  and  _39
REMARK   18  A    between atoms: _38  and  _41
REMARK   19  A    between atoms: _41  and  _42
REMARK   20  A    between atoms: _47  and  _48
REMARK   21  A    between atoms: _50  and  _52
REMARK   22  A    between atoms: _52  and  _53
REMARK   23  A    between atoms: _52  and  _55
REMARK   24  A    between atoms: _55  and  _56
REMARK   25  A    between atoms: _56  and  _57
REMARK   26  A    between atoms: _60  and  _62
REMARK   27  A    between atoms: _62  and  _63
REMARK   28  A    between atoms: _62  and  _65
REMARK   29  A    between atoms: _65  and  _66
REMARK   30  A    between atoms: _66  and  _67
REMARK   31  A    between atoms: _72  and  _74
REMARK   32  A    between atoms: _74  and  _75
REMARK   33  A    between atoms: _74  and  _77
REMARK   34  A    between atoms: _77  and  _78
REMARK   35  A    between atoms: _83  and  _85
REMARK   36  A    between atoms: _85  and  _86
REMARK   37  A    between atoms: _85  and  _88
REMARK   38  A    between atoms: _88  and  _89
REMARK   39  A    between atoms: _94  and  _96
REMARK   40  A    between atoms: _96  and  _97
REMARK   41  A    between atoms: _99  and  _101
REMARK   42  A    between atoms: _101  and  _102
REMARK   43  A    between atoms: _101  and  _104
REMARK   44  A    between atoms: _104  and  _105
REMARK   45  A    between atoms: _105  and  _106
REMARK   46  A    between atoms: _108  and  _110
REMARK   47  A    between atoms: _110  and  _111
REMARK   48  A    between atoms: _110  and  _113
REMARK   49  A    between atoms: _113  and  _114
REMARK   50  A    between atoms: _117  and  _119
REMARK   51  A    between atoms: _119  and  _120
REMARK   52  A    between atoms: _119  and  _122
REMARK   53  A    between atoms: _122  and  _123
REMARK   54  A    between atoms: _123  and  _124
REMARK   55  A    between atoms: _127  and  _129
REMARK   56  A    between atoms: _129  and  _130
REMARK   57  A    between atoms: _129  and  _132
REMARK   58  A    between atoms: _132  and  _133
REMARK   59  A    between atoms: _133  and  _134
REMARK   60  A    between atoms: _136  and  _138
REMARK   61  A    between atoms: _138  and  _139
REMARK   62  A    between atoms: _138  and  _141
REMARK   63  A    between atoms: _141  and  _142
REMARK   64  A    between atoms: _152  and  _154
REMARK   65  A    between atoms: _154  and  _155
REMARK   66  A    between atoms: _154  and  _157
REMARK   67  A    between atoms: _157  and  _158
REMARK   68  A    between atoms: _160  and  _162
REMARK   69  A    between atoms: _162  and  _163
REMARK   70  A    between atoms: _162  and  _165
REMARK   71  A    between atoms: _165  and  _166
REMARK   72  A    between atoms: _169  and  _171
REMARK   73  A    between atoms: _171  and  _172
REMARK   74  A    between atoms: _171  and  _174
REMARK   75  A    between atoms: _174  and  _175
REMARK   76  A    between atoms: _175  and  _176
REMARK   77  A    between atoms: _176  and  _177
REMARK   78  A    between atoms: _177  and  _178
REMARK   79  A    between atoms: _182  and  _184
REMARK   80  A    between atoms: _184  and  _185
REMARK   81  A    between atoms: _184  and  _187
REMARK   82  A    between atoms: _187  and  _188
REMARK   83  A    between atoms: _193  and  _194
REMARK   84  A    between atoms: _196  and  _198
REMARK   85  A    between atoms: _198  and  _199
REMARK   86  A    between atoms: _198  and  _201
REMARK   87  A    between atoms: _204  and  _206
REMARK   88  A    between atoms: _206  and  _207
REMARK   89  A    between atoms: _206  and  _209
REMARK   90  A    between atoms: _209  and  _210
REMARK   91  A    between atoms: _215  and  _216
REMARK   92  A    between atoms: _218  and  _220
REMARK   93  A    between atoms: _220  and  _221
REMARK   94  A    between atoms: _220  and  _223
REMARK   95  A    between atoms: _223  and  _224
REMARK   96  A    between atoms: _234  and  _236
REMARK   97  A    between atoms: _236  and  _237
REMARK   98  A    between atoms: _236  and  _239
REMARK   99  A    between atoms: _239  and  _240
REMARK  100  A    between atoms: _243  and  _245
REMARK  101  A    between atoms: _245  and  _246
REMARK  102  A    between atoms: _245  and  _248
REMARK  103  A    between atoms: _248  and  _249
REMARK  104  A    between atoms: _254  and  _255
REMARK  105  A    between atoms: _257  and  _259
REMARK  106  A    between atoms: _259  and  _260
REMARK  107  A    between atoms: _259  and  _262
REMARK  108  A    between atoms: _262  and  _263
REMARK  109  A    between atoms: _268  and  _269
REMARK  110  A    between atoms: _271  and  _273
REMARK  111  A    between atoms: _273  and  _274
REMARK  112  A    between atoms: _277  and  _279
REMARK  113  A    between atoms: _279  and  _280
REMARK  114  A    between atoms: _279  and  _282
REMARK  115  A    between atoms: _282  and  _283
REMARK  116  A    between atoms: _293  and  _295
REMARK  117  A    between atoms: _295  and  _296
REMARK  118  A    between atoms: _295  and  _298
REMARK  119  A    between atoms: _298  and  _299
REMARK  120  A    between atoms: _299  and  _300
REMARK  121  A    between atoms: _300  and  _301
REMARK  122  A    between atoms: _301  and  _302
REMARK  123  A    between atoms: _306  and  _308
REMARK  124  A    between atoms: _308  and  _309
REMARK  125  A    between atoms: _308  and  _311
REMARK  126  A    between atoms: _311  and  _312
REMARK  127  A    between atoms: _322  and  _324
REMARK  128  A    between atoms: _324  and  _325
REMARK  129  A    between atoms: _324  and  _327
REMARK  130  A    between atoms: _327  and  _328
REMARK  131  A    between atoms: _331  and  _333
REMARK  132  A    between atoms: _333  and  _334
REMARK  133  A    between atoms: _333  and  _336
REMARK  134  A    between atoms: _336  and  _337
REMARK  135  A    between atoms: _340  and  _342
REMARK  136  A    between atoms: _342  and  _343
REMARK  137  A    between atoms: _345  and  _347
REMARK  138  A    between atoms: _347  and  _348
REMARK  139  A    between atoms: _347  and  _350
REMARK  140  A    between atoms: _350  and  _351
REMARK  141  A    between atoms: _361  and  _363
REMARK  142  A    between atoms: _363  and  _364
REMARK  143  A    between atoms: _366  and  _368
REMARK  144  A    between atoms: _368  and  _369
REMARK  145  A    between atoms: _368  and  _371
REMARK  146  A    between atoms: _371  and  _372
REMARK  147  A    between atoms: _375  and  _377
REMARK  148  A    between atoms: _377  and  _378
REMARK  149  A    between atoms: _377  and  _380
REMARK  150  A    between atoms: _380  and  _381
REMARK  151  A    between atoms: _386  and  _388
REMARK  152  A    between atoms: _388  and  _389
REMARK  153  A    between atoms: _388  and  _391
REMARK  154  A    between atoms: _391  and  _392
REMARK  155  A    between atoms: _397  and  _399
REMARK  156  A    between atoms: _399  and  _400
REMARK  157  A    between atoms: _399  and  _402
REMARK  158  A    between atoms: _402  and  _403
REMARK                            x       y       z     vdW  Elec       q    Type
REMARK                         _______ _______ _______ _____ _____    ______ ____
ROOT
ATOM      1  CB  GLN A   1      35.432   5.268  40.817  0.00  0.00    +0.035 C 
ENDROOT
BRANCH   1   2
ATOM      2  CA  GLN A   1      35.847   4.318  41.922  0.00  0.00    +0.134 C 
BRANCH   2   3
ATOM      3  N   GLN A   1      36.115   5.001  43.155  0.00  0.00    -0.239 NA
ATOM      4  H   GLN A   1      36.959   5.604  43.231  0.00  0.00    +0.142 HD
ENDBRANCH   2   3
BRANCH   2   5
ATOM      5  C   GLN A   1      37.052   3.555  41.441  0.00  0.00    +0.224 C 
ATOM      6  O   GLN A   1      38.138   4.120  41.296  0.00  0.00    -0.287 OA
ENDBRANCH   2   5
ENDBRANCH   1   2
BRANCH   1   7
ATOM      7  CG  GLN A   1      34.042   5.817  41.009  0.00  0.00    +0.087 C 
BRANCH   7   8
ATOM      8  CD  GLN A   1      32.961   4.793  40.797  0.00  0.00    +0.219 C 
ATOM      9  NE2 GLN A   1      31.718   5.256  40.910  0.00  0.00    -0.329 N 
ATOM     10 HE21 GLN A   1      31.555   6.263  41.110  0.00  0.00    +0.145 HD
ATOM     11 HE22 GLN A   1      30.910   4.610  40.798  0.00  0.00    +0.145 HD
ATOM     12  OE1 GLN A   1      33.210   3.611  40.561  0.00  0.00    -0.275 OA
ENDBRANCH   7   8
ENDBRANCH   1   7
TORSDOF 5
REMARK  Name = ../refined-set-2016/2epn/2epn_pocket.pdb
REMARK  158 active torsions:
REMARK  status: ('A' for Active; 'I' for Inactive)
REMARK    1  A    between atoms: _1  and  _3
REMARK    2  A    between atoms: _3  and  _4
REMARK    3  A    between atoms: _3  and  _6
REMARK    4  A    between atoms: _6  and  _7
REMARK    5  A    between atoms: _7  and  _8
REMARK    6  A    between atoms: _10  and  _12
REMARK    7  A    between atoms: _12  and  _13
REMARK    8  A    between atoms: _12  and  _15
REMARK    9  A    between atoms: _15  and  _16
REMARK   10  A    between atoms: _19  and  _21
REMARK   11  A    between atoms: _21  and  _22
REMARK   12  A    between atoms: _21  and  _24
REMARK   13  A    between atoms: _24  and  _25
REMARK   14  A    between atoms: _25  and  _26
REMARK   15  A    between atoms: _26  and  _27
REMARK   16  A    between atoms: _36  and  _38
REMARK   17  A    between atoms: _38  and  _39
REMARK   18  A    between atoms: _38  and  _41
REMARK   19  A    between atoms: _41  and  _42
REMARK   20  A    between atoms: _47  and  _48
REMARK   21  A    between atoms: _50  and  _52
REMARK   22  A    between atoms: _52  and  _53
REMARK   23  A    between atoms: _52  and  _55
REMARK   24  A    between atoms: _55  and  _56
REMARK   25  A    between atoms: _56  and  _57
REMARK   26  A    between atoms: _60  and  _62
REMARK   27  A    between atoms: _62  and  _63
REMARK   28  A    between atoms: _62  and  _65
REMARK   29  A    between atoms: _65  and  _66
REMARK   30  A    between atoms: _66  and  _67
REMARK   31  A    between atoms: _72  and  _74
REMARK   32  A    between atoms: _74  and  _75
REMARK   33  A    between atoms: _74  and  _77
REMARK   34  A    between atoms: _77  and  _78
REMARK   35  A    between atoms: _83  and  _85
REMARK   36  A    between atoms: _85  and  _86
REMARK   37  A    between atoms: _85  and  _88
REMARK   38  A    between atoms: _88  and  _89
REMARK   39  A    between atoms: _94  and  _96
REMARK   40  A    between atoms: _96  and  _97
REMARK   41  A    between atoms: _99  and  _101
REMARK   42  A    between atoms: _101  and  _102
REMARK   43  A    between atoms: _101  and  _104
REMARK   44  A    between atoms: _104  and  _105
REMARK   45  A    between atoms: _105  and  _106
REMARK   46  A    between atoms: _108  and  _110
REMARK   47  A    between atoms: _110  and  _111
REMARK   48  A    between atoms: _110  and  _113
REMARK   49  A    between atoms: _113  and  _114
REMARK   50  A    between atoms: _117  and  _119
REMARK   51  A    between atoms: _119  and  _120
REMARK   52  A    between atoms: _119  and  _122
REMARK   53  A    between atoms: _122  and  _123
REMARK   54  A    between atoms: _123  and  _124
REMARK   55  A    between atoms: _127  and  _129
REMARK   56  A    between atoms: _129  and  _130
REMARK   57  A    between atoms: _129  and  _132
REMARK   58  A    between atoms: _132  and  _133
REMARK   59  A    between atoms: _133  and  _134
REMARK   60  A    between atoms: _136  and  _138
REMARK   61  A    between atoms: _138  and  _139
REMARK   62  A    between atoms: _138  and  _141
REMARK   63  A    between atoms: _141  and  _142
REMARK   64  A    between atoms: _152  and  _154
REMARK   65  A    between atoms: _154  and  _155
REMARK   66  A    between atoms: _154  and  _157
REMARK   67  A    between atoms: _157  and  _158
REMARK   68  A    between atoms: _160  and  _162
REMARK   69  A    between atoms: _162  and  _163
REMARK   70  A    between atoms: _162  and  _165
REMARK   71  A    between atoms: _165  and  _166
REMARK   72  A    between atoms: _169  and  _171
REMARK   73  A    between atoms: _171  and  _172
REMARK   74  A    between atoms: _171  and  _174
REMARK   75  A    between atoms: _174  and  _175
REMARK   76  A    between atoms: _175  and  _176
REMARK   77  A    between atoms: _176  and  _177
REMARK   78  A    between atoms: _177  and  _178
REMARK   79  A    between atoms: _182  and  _184
REMARK   80  A    between atoms: _184  and  _185
REMARK   81  A    between atoms: _184  and  _187
REMARK   82  A    between atoms: _187  and  _188
REMARK   83  A    between atoms: _193  and  _194
REMARK   84  A    between atoms: _196  and  _198
REMARK   85  A    between atoms: _198  and  _199
REMARK   86  A    between atoms: _198  and  _201
REMARK   87  A    between atoms: _204  and  _206
REMARK   88  A    between atoms: _206  and  _207
REMARK   89  A    between atoms: _206  and  _209
REMARK   90  A    between atoms: _209  and  _210
REMARK   91  A    between atoms: _215  and  _216
REMARK   92  A    between atoms: _218  and  _220
REMARK   93  A    between atoms: _220  and  _221
REMARK   94  A    between atoms: _220  and  _223
REMARK   95  A    between atoms: _223  and  _224
REMARK   96  A    between atoms: _234  and  _236
REMARK   97  A    between atoms: _236  and  _237
REMARK   98  A    between atoms: _236  and  _239
REMARK   99  A    between atoms: _239  and  _240
REMARK  100  A    between atoms: _243  and  _245
REMARK  101  A    between atoms: _245  and  _246
REMARK  102  A    between atoms: _245  and  _248
REMARK  103  A    between atoms: _248  and  _249
REMARK  104  A    between atoms: _254  and  _255
REMARK  105  A    between atoms: _257  and  _259
REMARK  106  A    between atoms: _259  and  _260
REMARK  107  A    between atoms: _259  and  _262
REMARK  108  A    between atoms: _262  and  _263
REMARK  109  A    between atoms: _268  and  _269
REMARK  110  A    between atoms: _271  and  _273
REMARK  111  A    between atoms: _273  and  _274
REMARK  112  A    between atoms: _277  and  _279
REMARK  113  A    between atoms: _279  and  _280
REMARK  114  A    between atoms: _279  and  _282
REMARK  115  A    between atoms: _282  and  _283
REMARK  116  A    between atoms: _293  and  _295
REMARK  117  A    between atoms: _295  and  _296
REMARK  118  A    between atoms: _295  and  _298
REMARK  119  A    between atoms: _298  and  _299
REMARK  120  A    between atoms: _299  and  _300
REMARK  121  A    between atoms: _300  and  _301
REMARK  122  A    between atoms: _301  and  _302
REMARK  123  A    between atoms: _306  and  _308
REMARK  124  A    between atoms: _308  and  _309
REMARK  125  A    between atoms: _308  and  _311
REMARK  126  A    between atoms: _311  and  _312
REMARK  127  A    between atoms: _322  and  _324
REMARK  128  A    between atoms: _324  and  _325
REMARK  129  A    between atoms: _324  and  _327
REMARK  130  A    between atoms: _327  and  _328
REMARK  131  A    between atoms: _331  and  _333
REMARK  132  A    between atoms: _333  and  _334
REMARK  133  A    between atoms: _333  and  _336
REMARK  134  A    between atoms: _336  and  _337
REMARK  135  A    between atoms: _340  and  _342
REMARK  136  A    between atoms: _342  and  _343
REMARK  137  A    between atoms: _345  and  _347
REMARK  138  A    between atoms: _347  and  _348
REMARK  139  A    between atoms: _347  and  _350
REMARK  140  A    between atoms: _350  and  _351
REMARK  141  A    between atoms: _361  and  _363
REMARK  142  A    between atoms: _363  and  _364
REMARK  143  A    between atoms: _366  and  _368
REMARK  144  A    between atoms: _368  and  _369
REMARK  145  A    between atoms: _368  and  _371
REMARK  146  A    between atoms: _371  and  _372
REMARK  147  A    between atoms: _375  and  _377
REMARK  148  A    between atoms: _377  and  _378
REMARK  149  A    between atoms: _377  and  _380
REMARK  150  A    between atoms: _380  and  _381
REMARK  151  A    between atoms: _386  and  _388
REMARK  152  A    between atoms: _388  and  _389
REMARK  153  A    between atoms: _388  and  _391
REMARK  154  A    between atoms: _391  and  _392
REMARK  155  A    between atoms: _397  and  _399
REMARK  156  A    between atoms: _399  and  _400
REMARK  157  A    between atoms: _399  and  _402
REMARK  158  A    between atoms: _402  and  _403
REMARK                            x       y       z     vdW  Elec       q    Type
REMARK                         _______ _______ _______ _____ _____    ______ ____
ROOT
ATOM      1  CB  HIS A   1      31.944   7.092  37.959  0.00  0.00    +0.072 C 
ENDROOT
BRANCH   1   2
ATOM      2  CG  HIS A   1      30.481   7.013  37.647  0.00  0.00    +0.082 A 
ATOM      3  CD2 HIS A   1      29.611   5.977  37.698  0.00  0.00    +0.115 A 
ATOM      4  NE2 HIS A   1      28.378   6.467  37.338  0.00  0.00    -0.221 NA
ATOM      5  CE1 HIS A   1      28.498   7.752  37.047  0.00  0.00    +0.199 A 
ATOM      6  ND1 HIS A   1      29.757   8.116  37.231  0.00  0.00    -0.227 NA
ENDBRANCH   1   2
BRANCH   1   7
ATOM      7  CA  HIS A   1      32.836   7.252  36.727  0.00  0.00    +0.139 C 
BRANCH   7   8
ATOM      8  N   HIS A   1      33.054   5.982  36.068  0.00  0.00    -0.239 NA
ATOM      9  H   HIS A   1      32.607   5.811  35.145  0.00  0.00    +0.142 HD
ENDBRANCH   7   8
BRANCH   7  10
ATOM     10  C   HIS A   1      34.168   7.942  37.064  0.00  0.00    +0.224 C 
ATOM     11  O   HIS A   1      34.349   8.516  38.139  0.00  0.00    -0.287 OA
ENDBRANCH   7  10
ENDBRANCH   1   7
TORSDOF 4
REMARK  Name = ../refined-set-2016/2epn/2epn_pocket.pdb
REMARK  158 active torsions:
REMARK  status: ('A' for Active; 'I' for Inactive)
REMARK    1  A    between atoms: _1  and  _3
REMARK    2  A    between atoms: _3  and  _4
REMARK    3  A    between atoms: _3  and  _6
REMARK    4  A    between atoms: _6  and  _7
REMARK    5  A    between atoms: _7  and  _8
REMARK    6  A    between atoms: _10  and  _12
REMARK    7  A    between atoms: _12  and  _13
REMARK    8  A    between atoms: _12  and  _15
REMARK    9  A    between atoms: _15  and  _16
REMARK   10  A    between atoms: _19  and  _21
REMARK   11  A    between atoms: _21  and  _22
REMARK   12  A    between atoms: _21  and  _24
REMARK   13  A    between atoms: _24  and  _25
REMARK   14  A    between atoms: _25  and  _26
REMARK   15  A    between atoms: _26  and  _27
REMARK   16  A    between atoms: _36  and  _38
REMARK   17  A    between atoms: _38  and  _39
REMARK   18  A    between atoms: _38  and  _41
REMARK   19  A    between atoms: _41  and  _42
REMARK   20  A    between atoms: _47  and  _48
REMARK   21  A    between atoms: _50  and  _52
REMARK   22  A    between atoms: _52  and  _53
REMARK   23  A    between atoms: _52  and  _55
REMARK   24  A    between atoms: _55  and  _56
REMARK   25  A    between atoms: _56  and  _57
REMARK   26  A    between atoms: _60  and  _62
REMARK   27  A    between atoms: _62  and  _63
REMARK   28  A    between atoms: _62  and  _65
REMARK   29  A    between atoms: _65  and  _66
REMARK   30  A    between atoms: _66  and  _67
REMARK   31  A    between atoms: _72  and  _74
REMARK   32  A    between atoms: _74  and  _75
REMARK   33  A    between atoms: _74  and  _77
REMARK   34  A    between atoms: _77  and  _78
REMARK   35  A    between atoms: _83  and  _85
REMARK   36  A    between atoms: _85  and  _86
REMARK   37  A    between atoms: _85  and  _88
REMARK   38  A    between atoms: _88  and  _89
REMARK   39  A    between atoms: _94  and  _96
REMARK   40  A    between atoms: _96  and  _97
REMARK   41  A    between atoms: _99  and  _101
REMARK   42  A    between atoms: _101  and  _102
REMARK   43  A    between atoms: _101  and  _104
REMARK   44  A    between atoms: _104  and  _105
REMARK   45  A    between atoms: _105  and  _106
REMARK   46  A    between atoms: _108  and  _110
REMARK   47  A    between atoms: _110  and  _111
REMARK   48  A    between atoms: _110  and  _113
REMARK   49  A    between atoms: _113  and  _114
REMARK   50  A    between atoms: _117  and  _119
REMARK   51  A    between atoms: _119  and  _120
REMARK   52  A    between atoms: _119  and  _122
REMARK   53  A    between atoms: _122  and  _123
REMARK   54  A    between atoms: _123  and  _124
REMARK   55  A    between atoms: _127  and  _129
REMARK   56  A    between atoms: _129  and  _130
REMARK   57  A    between atoms: _129  and  _132
REMARK   58  A    between atoms: _132  and  _133
REMARK   59  A    between atoms: _133  and  _134
REMARK   60  A    between atoms: _136  and  _138
REMARK   61  A    between atoms: _138  and  _139
REMARK   62  A    between atoms: _138  and  _141
REMARK   63  A    between atoms: _141  and  _142
REMARK   64  A    between atoms: _152  and  _154
REMARK   65  A    between atoms: _154  and  _155
REMARK   66  A    between atoms: _154  and  _157
REMARK   67  A    between atoms: _157  and  _158
REMARK   68  A    between atoms: _160  and  _162
REMARK   69  A    between atoms: _162  and  _163
REMARK   70  A    between atoms: _162  and  _165
REMARK   71  A    between atoms: _165  and  _166
REMARK   72  A    between atoms: _169  and  _171
REMARK   73  A    between atoms: _171  and  _172
REMARK   74  A    between atoms: _171  and  _174
REMARK   75  A    between atoms: _174  and  _175
REMARK   76  A    between atoms: _175  and  _176
REMARK   77  A    between atoms: _176  and  _177
REMARK   78  A    between atoms: _177  and  _178
REMARK   79  A    between atoms: _182  and  _184
REMARK   80  A    between atoms: _184  and  _185
REMARK   81  A    between atoms: _184  and  _187
REMARK   82  A    between atoms: _187  and  _188
REMARK   83  A    between atoms: _193  and  _194
REMARK   84  A    between atoms: _196  and  _198
REMARK   85  A    between atoms: _198  and  _199
REMARK   86  A    between atoms: _198  and  _201
REMARK   87  A    between atoms: _204  and  _206
REMARK   88  A    between atoms: _206  and  _207
REMARK   89  A    between atoms: _206  and  _209
REMARK   90  A    between atoms: _209  and  _210
REMARK   91  A    between atoms: _215  and  _216
REMARK   92  A    between atoms: _218  and  _220
REMARK   93  A    between atoms: _220  and  _221
REMARK   94  A    between atoms: _220  and  _223
REMARK   95  A    between atoms: _223  and  _224
REMARK   96  A    between atoms: _234  and  _236
REMARK   97  A    between atoms: _236  and  _237
REMARK   98  A    between atoms: _236  and  _239
REMARK   99  A    between atoms: _239  and  _240
REMARK  100  A    between atoms: _243  and  _245
REMARK  101  A    between atoms: _245  and  _246
REMARK  102  A    between atoms: _245  and  _248
REMARK  103  A    between atoms: _248  and  _249
REMARK  104  A    between atoms: _254  and  _255
REMARK  105  A    between atoms: _257  and  _259
REMARK  106  A    between atoms: _259  and  _260
REMARK  107  A    between atoms: _259  and  _262
REMARK  108  A    between atoms: _262  and  _263
REMARK  109  A    between atoms: _268  and  _269
REMARK  110  A    between atoms: _271  and  _273
REMARK  111  A    between atoms: _273  and  _274
REMARK  112  A    between atoms: _277  and  _279
REMARK  113  A    between atoms: _279  and  _280
REMARK  114  A    between atoms: _279  and  _282
REMARK  115  A    between atoms: _282  and  _283
REMARK  116  A    between atoms: _293  and  _295
REMARK  117  A    between atoms: _295  and  _296
REMARK  118  A    between atoms: _295  and  _298
REMARK  119  A    between atoms: _298  and  _299
REMARK  120  A    between atoms: _299  and  _300
REMARK  121  A    between atoms: _300  and  _301
REMARK  122  A    between atoms: _301  and  _302
REMARK  123  A    between atoms: _306  and  _308
REMARK  124  A    between atoms: _308  and  _309
REMARK  125  A    between atoms: _308  and  _311
REMARK  126  A    between atoms: _311  and  _312
REMARK  127  A    between atoms: _322  and  _324
REMARK  128  A    between atoms: _324  and  _325
REMARK  129  A    between atoms: _324  and  _327
REMARK  130  A    between atoms: _327  and  _328
REMARK  131  A    between atoms: _331  and  _333
REMARK  132  A    between atoms: _333  and  _334
REMARK  133  A    between atoms: _333  and  _336
REMARK  134  A    between atoms: _336  and  _337
REMARK  135  A    between atoms: _340  and  _342
REMARK  136  A    between atoms: _342  and  _343
REMARK  137  A    between atoms: _345  and  _347
REMARK  138  A    between atoms: _347  and  _348
REMARK  139  A    between atoms: _347  and  _350
REMARK  140  A    between atoms: _350  and  _351
REMARK  141  A    between atoms: _361  and  _363
REMARK  142  A    between atoms: _363  and  _364
REMARK  143  A    between atoms: _366  and  _368
REMARK  144  A    between atoms: _368  and  _369
REMARK  145  A    between atoms: _368  and  _371
REMARK  146  A    between atoms: _371  and  _372
REMARK  147  A    between atoms: _375  and  _377
REMARK  148  A    between atoms: _377  and  _378
REMARK  149  A    between atoms: _377  and  _380
REMARK  150  A    between atoms: _380  and  _381
REMARK  151  A    between atoms: _386  and  _388
REMARK  152  A    between atoms: _388  and  _389
REMARK  153  A    between atoms: _388  and  _391
REMARK  154  A    between atoms: _391  and  _392
REMARK  155  A    between atoms: _397  and  _399
REMARK  156  A    between atoms: _399  and  _400
REMARK  157  A    between atoms: _399  and  _402
REMARK  158  A    between atoms: _402  and  _403
REMARK                            x       y       z     vdW  Elec       q    Type
REMARK                         _______ _______ _______ _____ _____    ______ ____
ROOT
ATOM      1  CB  ASN A   1      31.844   2.116  48.883  0.00  0.00    +0.110 C 
ENDROOT
BRANCH   1   2
ATOM      2  CG  ASN A   1      30.912   1.910  47.719  0.00  0.00    +0.221 C 
ATOM      3  ND2 ASN A   1      29.613   1.928  48.003  0.00  0.00    -0.329 N 
ATOM      4 HD21 ASN A   1      29.298   2.034  48.988  0.00  0.00    +0.145 HD
ATOM      5 HD22 ASN A   1      28.913   1.836  47.240  0.00  0.00    +0.145 HD
ATOM      6  OD1 ASN A   1      31.338   1.787  46.575  0.00  0.00    -0.275 OA
ENDBRANCH   1   2
BRANCH   1   7
ATOM      7  CA  ASN A   1      33.096   1.246  48.825  0.00  0.00    +0.142 C 
BRANCH   7   8
ATOM      8  N   ASN A   1      33.956   1.556  49.954  0.00  0.00    -0.239 NA
ATOM      9  H   ASN A   1      34.161   2.550  50.179  0.00  0.00    +0.142 HD
ENDBRANCH   7   8
BRANCH   7  10
ATOM     10  C   ASN A   1      33.897   1.491  47.551  0.00  0.00    +0.225 C 
ATOM     11  O   ASN A   1      34.358   2.600  47.318  0.00  0.00    -0.287 OA
ENDBRANCH   7  10
ENDBRANCH   1   7
TORSDOF 4
REMARK  Name = ../refined-set-2016/2epn/2epn_pocket.pdb
REMARK  158 active torsions:
REMARK  status: ('A' for Active; 'I' for Inactive)
REMARK    1  A    between atoms: _1  and  _3
REMARK    2  A    between atoms: _3  and  _4
REMARK    3  A    between atoms: _3  and  _6
REMARK    4  A    between atoms: _6  and  _7
REMARK    5  A    between atoms: _7  and  _8
REMARK    6  A    between atoms: _10  and  _12
REMARK    7  A    between atoms: _12  and  _13
REMARK    8  A    between atoms: _12  and  _15
REMARK    9  A    between atoms: _15  and  _16
REMARK   10  A    between atoms: _19  and  _21
REMARK   11  A    between atoms: _21  and  _22
REMARK   12  A    between atoms: _21  and  _24
REMARK   13  A    between atoms: _24  and  _25
REMARK   14  A    between atoms: _25  and  _26
REMARK   15  A    between atoms: _26  and  _27
REMARK   16  A    between atoms: _36  and  _38
REMARK   17  A    between atoms: _38  and  _39
REMARK   18  A    between atoms: _38  and  _41
REMARK   19  A    between atoms: _41  and  _42
REMARK   20  A    between atoms: _47  and  _48
REMARK   21  A    between atoms: _50  and  _52
REMARK   22  A    between atoms: _52  and  _53
REMARK   23  A    between atoms: _52  and  _55
REMARK   24  A    between atoms: _55  and  _56
REMARK   25  A    between atoms: _56  and  _57
REMARK   26  A    between atoms: _60  and  _62
REMARK   27  A    between atoms: _62  and  _63
REMARK   28  A    between atoms: _62  and  _65
REMARK   29  A    between atoms: _65  and  _66
REMARK   30  A    between atoms: _66  and  _67
REMARK   31  A    between atoms: _72  and  _74
REMARK   32  A    between atoms: _74  and  _75
REMARK   33  A    between atoms: _74  and  _77
REMARK   34  A    between atoms: _77  and  _78
REMARK   35  A    between atoms: _83  and  _85
REMARK   36  A    between atoms: _85  and  _86
REMARK   37  A    between atoms: _85  and  _88
REMARK   38  A    between atoms: _88  and  _89
REMARK   39  A    between atoms: _94  and  _96
REMARK   40  A    between atoms: _96  and  _97
REMARK   41  A    between atoms: _99  and  _101
REMARK   42  A    between atoms: _101  and  _102
REMARK   43  A    between atoms: _101  and  _104
REMARK   44  A    between atoms: _104  and  _105
REMARK   45  A    between atoms: _105  and  _106
REMARK   46  A    between atoms: _108  and  _110
REMARK   47  A    between atoms: _110  and  _111
REMARK   48  A    between atoms: _110  and  _113
REMARK   49  A    between atoms: _113  and  _114
REMARK   50  A    between atoms: _117  and  _119
REMARK   51  A    between atoms: _119  and  _120
REMARK   52  A    between atoms: _119  and  _122
REMARK   53  A    between atoms: _122  and  _123
REMARK   54  A    between atoms: _123  and  _124
REMARK   55  A    between atoms: _127  and  _129
REMARK   56  A    between atoms: _129  and  _130
REMARK   57  A    between atoms: _129  and  _132
REMARK   58  A    between atoms: _132  and  _133
REMARK   59  A    between atoms: _133  and  _134
REMARK   60  A    between atoms: _136  and  _138
REMARK   61  A    between atoms: _138  and  _139
REMARK   62  A    between atoms: _138  and  _141
REMARK   63  A    between atoms: _141  and  _142
REMARK   64  A    between atoms: _152  and  _154
REMARK   65  A    between atoms: _154  and  _155
REMARK   66  A    between atoms: _154  and  _157
REMARK   67  A    between atoms: _157  and  _158
REMARK   68  A    between atoms: _160  and  _162
REMARK   69  A    between atoms: _162  and  _163
REMARK   70  A    between atoms: _162  and  _165
REMARK   71  A    between atoms: _165  and  _166
REMARK   72  A    between atoms: _169  and  _171
REMARK   73  A    between atoms: _171  and  _172
REMARK   74  A    between atoms: _171  and  _174
REMARK   75  A    between atoms: _174  and  _175
REMARK   76  A    between atoms: _175  and  _176
REMARK   77  A    between atoms: _176  and  _177
REMARK   78  A    between atoms: _177  and  _178
REMARK   79  A    between atoms: _182  and  _184
REMARK   80  A    between atoms: _184  and  _185
REMARK   81  A    between atoms: _184  and  _187
REMARK   82  A    between atoms: _187  and  _188
REMARK   83  A    between atoms: _193  and  _194
REMARK   84  A    between atoms: _196  and  _198
REMARK   85  A    between atoms: _198  and  _199
REMARK   86  A    between atoms: _198  and  _201
REMARK   87  A    between atoms: _204  and  _206
REMARK   88  A    between atoms: _206  and  _207
REMARK   89  A    between atoms: _206  and  _209
REMARK   90  A    between atoms: _209  and  _210
REMARK   91  A    between atoms: _215  and  _216
REMARK   92  A    between atoms: _218  and  _220
REMARK   93  A    between atoms: _220  and  _221
REMARK   94  A    between atoms: _220  and  _223
REMARK   95  A    between atoms: _223  and  _224
REMARK   96  A    between atoms: _234  and  _236
REMARK   97  A    between atoms: _236  and  _237
REMARK   98  A    between atoms: _236  and  _239
REMARK   99  A    between atoms: _239  and  _240
REMARK  100  A    between atoms: _243  and  _245
REMARK  101  A    between atoms: _245  and  _246
REMARK  102  A    between atoms: _245  and  _248
REMARK  103  A    between atoms: _248  and  _249
REMARK  104  A    between atoms: _254  and  _255
REMARK  105  A    between atoms: _257  and  _259
REMARK  106  A    between atoms: _259  and  _260
REMARK  107  A    between atoms: _259  and  _262
REMARK  108  A    between atoms: _262  and  _263
REMARK  109  A    between atoms: _268  and  _269
REMARK  110  A    between atoms: _271  and  _273
REMARK  111  A    between atoms: _273  and  _274
REMARK  112  A    between atoms: _277  and  _279
REMARK  113  A    between atoms: _279  and  _280
REMARK  114  A    between atoms: _279  and  _282
REMARK  115  A    between atoms: _282  and  _283
REMARK  116  A    between atoms: _293  and  _295
REMARK  117  A    between atoms: _295  and  _296
REMARK  118  A    between atoms: _295  and  _298
REMARK  119  A    between atoms: _298  and  _299
REMARK  120  A    between atoms: _299  and  _300
REMARK  121  A    between atoms: _300  and  _301
REMARK  122  A    between atoms: _301  and  _302
REMARK  123  A    between atoms: _306  and  _308
REMARK  124  A    between atoms: _308  and  _309
REMARK  125  A    between atoms: _308  and  _311
REMARK  126  A    between atoms: _311  and  _312
REMARK  127  A    between atoms: _322  and  _324
REMARK  128  A    between atoms: _324  and  _325
REMARK  129  A    between atoms: _324  and  _327
REMARK  130  A    between atoms: _327  and  _328
REMARK  131  A    between atoms: _331  and  _333
REMARK  132  A    between atoms: _333  and  _334
REMARK  133  A    between atoms: _333  and  _336
REMARK  134  A    between atoms: _336  and  _337
REMARK  135  A    between atoms: _340  and  _342
REMARK  136  A    between atoms: _342  and  _343
REMARK  137  A    between atoms: _345  and  _347
REMARK  138  A    between atoms: _347  and  _348
REMARK  139  A    between atoms: _347  and  _350
REMARK  140  A    between atoms: _350  and  _351
REMARK  141  A    between atoms: _361  and  _363
REMARK  142  A    between atoms: _363  and  _364
REMARK  143  A    between atoms: _366  and  _368
REMARK  144  A    between atoms: _368  and  _369
REMARK  145  A    between atoms: _368  and  _371
REMARK  146  A    between atoms: _371  and  _372
REMARK  147  A    between atoms: _375  and  _377
REMARK  148  A    between atoms: _377  and  _378
REMARK  149  A    between atoms: _377  and  _380
REMARK  150  A    between atoms: _380  and  _381
REMARK  151  A    between atoms: _386  and  _388
REMARK  152  A    between atoms: _388  and  _389
REMARK  153  A    between atoms: _388  and  _391
REMARK  154  A    between atoms: _391  and  _392
REMARK  155  A    between atoms: _397  and  _399
REMARK  156  A    between atoms: _399  and  _400
REMARK  157  A    between atoms: _399  and  _402
REMARK  158  A    between atoms: _402  and  _403
REMARK                            x       y       z     vdW  Elec       q    Type
REMARK                         _______ _______ _______ _____ _____    ______ ____
ROOT
ATOM      1  CA  ASP A   3      28.540   1.093  38.987  0.00  0.00    +0.160 C 
ENDROOT
BRANCH   1   3
ATOM      2  C   MET A   2      30.491  -0.323  39.414  0.00  0.00    +0.241 C 
ATOM      3  N   ASP A   3      29.800   0.777  39.678  0.00  0.00    -0.297 N 
ATOM      4  H   ASP A   3      30.160   1.438  40.396  0.00  0.00    +0.150 HD
ATOM      5  O   MET A   2      30.086  -1.234  38.703  0.00  0.00    -0.273 OA
BRANCH   2   6
ATOM      6  CA  MET A   2      31.907  -0.355  39.966  0.00  0.00    +0.149 C 
BRANCH   6   9
ATOM      7  C   GLY A   1      31.831   0.561  42.264  0.00  0.00    +0.240 C 
ATOM      8  O   GLY A   1      31.171  -0.361  42.714  0.00  0.00    -0.274 OA
ATOM      9  N   MET A   2      32.189   0.658  40.983  0.00  0.00    -0.297 N 
ATOM     10  H   MET A   2      32.704   1.512  40.687  0.00  0.00    +0.150 HD
BRANCH   7  11
ATOM     11  CA  GLY A   1      32.336   1.670  43.184  0.00  0.00    +0.169 C 
BRANCH  11  12
ATOM     12  N   GLY A   1      33.043   1.158  44.351  0.00  0.00    -0.236 NA
ATOM     13  H   GLY A   1      32.523   1.007  45.239  0.00  0.00    +0.142 HD
ENDBRANCH  11  12
ENDBRANCH   7  11
ENDBRANCH   6   9
BRANCH   6  14
ATOM     14  CB  MET A   2      32.294  -1.744  40.435  0.00  0.00    +0.041 C 
BRANCH  14  15
ATOM     15  CG  MET A   2      33.769  -1.886  40.767  0.00  0.00    +0.060 C 
BRANCH  15  16
ATOM     16  SD  MET A   2      34.360  -3.536  40.281  0.00  0.00    -0.139 S 
ATOM     17  CE  MET A   2      35.999  -3.490  41.027  0.00  0.00    +0.069 C 
ENDBRANCH  15  16
ENDBRANCH  14  15
ENDBRANCH   6  14
ENDBRANCH   2   6
ENDBRANCH   1   3
BRANCH   1  18
ATOM     18  C   ASP A   3      28.741   1.598  37.550  0.00  0.00    +0.241 C 
ATOM     19  O   ASP A   3      29.773   2.195  37.232  0.00  0.00    -0.273 OA
ATOM     20  N   GLU A   4      27.727   1.374  36.710  0.00  0.00    -0.298 N 
ATOM     21  H   GLU A   4      27.049   0.618  36.933  0.00  0.00    +0.150 HD
BRANCH  20  22
ATOM     22  CA  GLU A   4      27.537   2.152  35.490  0.00  0.00    +0.137 C 
BRANCH  22  23
ATOM     23  C   GLU A   4      28.756   2.153  34.572  0.00  0.00    +0.227 C 
ATOM     24  O   GLU A   4      29.169   3.209  34.065  0.00  0.00    -0.286 OA
ENDBRANCH  22  23
BRANCH  22  25
ATOM     25  CB  GLU A   4      27.039   3.560  35.841  0.00  0.00    +0.039 C 
BRANCH  25  26
ATOM     26  CG  GLU A   4      25.587   3.526  36.376  0.00  0.00    +0.116 C 
BRANCH  26  27
ATOM     27  CD  GLU A   4      25.016   4.886  36.793  0.00  0.00    +0.365 C 
ATOM     28  OE2 GLU A   4      25.779   5.873  36.987  0.00  0.00    -0.246 OA
ATOM     29  OE1 GLU A   4      23.770   4.931  36.943  0.00  0.00    -0.246 OA
ENDBRANCH  26  27
ENDBRANCH  25  26
ENDBRANCH  22  25
ENDBRANCH  20  22
ENDBRANCH   1  18
BRANCH   1  30
ATOM     30  CB  ASP A   3      27.735   2.143  39.743  0.00  0.00    +0.143 C 
BRANCH  30  31
ATOM     31  CG  ASP A   3      28.477   3.450  39.895  0.00  0.00    +0.367 C 
ATOM     32  OD2 ASP A   3      29.671   3.394  40.259  0.00  0.00    -0.246 OA
ATOM     33  OD1 ASP A   3      27.892   4.539  39.673  0.00  0.00    -0.246 OA
ENDBRANCH  30  31
ENDBRANCH   1  30
TORSDOF 16
REMARK  Name = ../refined-set-2016/2epn/2epn_pocket.pdb
REMARK  158 active torsions:
REMARK  status: ('A' for Active; 'I' for Inactive)
REMARK    1  A    between atoms: _1  and  _3
REMARK    2  A    between atoms: _3  and  _4
REMARK    3  A    between atoms: _3  and  _6
REMARK    4  A    between atoms: _6  and  _7
REMARK    5  A    between atoms: _7  and  _8
REMARK    6  A    between atoms: _10  and  _12
REMARK    7  A    between atoms: _12  and  _13
REMARK    8  A    between atoms: _12  and  _15
REMARK    9  A    between atoms: _15  and  _16
REMARK   10  A    between atoms: _19  and  _21
REMARK   11  A    between atoms: _21  and  _22
REMARK   12  A    between atoms: _21  and  _24
REMARK   13  A    between atoms: _24  and  _25
REMARK   14  A    between atoms: _25  and  _26
REMARK   15  A    between atoms: _26  and  _27
REMARK   16  A    between atoms: _36  and  _38
REMARK   17  A    between atoms: _38  and  _39
REMARK   18  A    between atoms: _38  and  _41
REMARK   19  A    between atoms: _41  and  _42
REMARK   20  A    between atoms: _47  and  _48
REMARK   21  A    between atoms: _50  and  _52
REMARK   22  A    between atoms: _52  and  _53
REMARK   23  A    between atoms: _52  and  _55
REMARK   24  A    between atoms: _55  and  _56
REMARK   25  A    between atoms: _56  and  _57
REMARK   26  A    between atoms: _60  and  _62
REMARK   27  A    between atoms: _62  and  _63
REMARK   28  A    between atoms: _62  and  _65
REMARK   29  A    between atoms: _65  and  _66
REMARK   30  A    between atoms: _66  and  _67
REMARK   31  A    between atoms: _72  and  _74
REMARK   32  A    between atoms: _74  and  _75
REMARK   33  A    between atoms: _74  and  _77
REMARK   34  A    between atoms: _77  and  _78
REMARK   35  A    between atoms: _83  and  _85
REMARK   36  A    between atoms: _85  and  _86
REMARK   37  A    between atoms: _85  and  _88
REMARK   38  A    between atoms: _88  and  _89
REMARK   39  A    between atoms: _94  and  _96
REMARK   40  A    between atoms: _96  and  _97
REMARK   41  A    between atoms: _99  and  _101
REMARK   42  A    between atoms: _101  and  _102
REMARK   43  A    between atoms: _101  and  _104
REMARK   44  A    between atoms: _104  and  _105
REMARK   45  A    between atoms: _105  and  _106
REMARK   46  A    between atoms: _108  and  _110
REMARK   47  A    between atoms: _110  and  _111
REMARK   48  A    between atoms: _110  and  _113
REMARK   49  A    between atoms: _113  and  _114
REMARK   50  A    between atoms: _117  and  _119
REMARK   51  A    between atoms: _119  and  _120
REMARK   52  A    between atoms: _119  and  _122
REMARK   53  A    between atoms: _122  and  _123
REMARK   54  A    between atoms: _123  and  _124
REMARK   55  A    between atoms: _127  and  _129
REMARK   56  A    between atoms: _129  and  _130
REMARK   57  A    between atoms: _129  and  _132
REMARK   58  A    between atoms: _132  and  _133
REMARK   59  A    between atoms: _133  and  _134
REMARK   60  A    between atoms: _136  and  _138
REMARK   61  A    between atoms: _138  and  _139
REMARK   62  A    between atoms: _138  and  _141
REMARK   63  A    between atoms: _141  and  _142
REMARK   64  A    between atoms: _152  and  _154
REMARK   65  A    between atoms: _154  and  _155
REMARK   66  A    between atoms: _154  and  _157
REMARK   67  A    between atoms: _157  and  _158
REMARK   68  A    between atoms: _160  and  _162
REMARK   69  A    between atoms: _162  and  _163
REMARK   70  A    between atoms: _162  and  _165
REMARK   71  A    between atoms: _165  and  _166
REMARK   72  A    between atoms: _169  and  _171
REMARK   73  A    between atoms: _171  and  _172
REMARK   74  A    between atoms: _171  and  _174
REMARK   75  A    between atoms: _174  and  _175
REMARK   76  A    between atoms: _175  and  _176
REMARK   77  A    between atoms: _176  and  _177
REMARK   78  A    between atoms: _177  and  _178
REMARK   79  A    between atoms: _182  and  _184
REMARK   80  A    between atoms: _184  and  _185
REMARK   81  A    between atoms: _184  and  _187
REMARK   82  A    between atoms: _187  and  _188
REMARK   83  A    between atoms: _193  and  _194
REMARK   84  A    between atoms: _196  and  _198
REMARK   85  A    between atoms: _198  and  _199
REMARK   86  A    between atoms: _198  and  _201
REMARK   87  A    between atoms: _204  and  _206
REMARK   88  A    between atoms: _206  and  _207
REMARK   89  A    between atoms: _206  and  _209
REMARK   90  A    between atoms: _209  and  _210
REMARK   91  A    between atoms: _215  and  _216
REMARK   92  A    between atoms: _218  and  _220
REMARK   93  A    between atoms: _220  and  _221
REMARK   94  A    between atoms: _220  and  _223
REMARK   95  A    between atoms: _223  and  _224
REMARK   96  A    between atoms: _234  and  _236
REMARK   97  A    between atoms: _236  and  _237
REMARK   98  A    between atoms: _236  and  _239
REMARK   99  A    between atoms: _239  and  _240
REMARK  100  A    between atoms: _243  and  _245
REMARK  101  A    between atoms: _245  and  _246
REMARK  102  A    between atoms: _245  and  _248
REMARK  103  A    between atoms: _248  and  _249
REMARK  104  A    between atoms: _254  and  _255
REMARK  105  A    between atoms: _257  and  _259
REMARK  106  A    between atoms: _259  and  _260
REMARK  107  A    between atoms: _259  and  _262
REMARK  108  A    between atoms: _262  and  _263
REMARK  109  A    between atoms: _268  and  _269
REMARK  110  A    between atoms: _271  and  _273
REMARK  111  A    between atoms: _273  and  _274
REMARK  112  A    between atoms: _277  and  _279
REMARK  113  A    between atoms: _279  and  _280
REMARK  114  A    between atoms: _279  and  _282
REMARK  115  A    between atoms: _282  and  _283
REMARK  116  A    between atoms: _293  and  _295
REMARK  117  A    between atoms: _295  and  _296
REMARK  118  A    between atoms: _295  and  _298
REMARK  119  A    between atoms: _298  and  _299
REMARK  120  A    between atoms: _299  and  _300
REMARK  121  A    between atoms: _300  and  _301
REMARK  122  A    between atoms: _301  and  _302
REMARK  123  A    between atoms: _306  and  _308
REMARK  124  A    between atoms: _308  and  _309
REMARK  125  A    between atoms: _308  and  _311
REMARK  126  A    between atoms: _311  and  _312
REMARK  127  A    between atoms: _322  and  _324
REMARK  128  A    between atoms: _324  and  _325
REMARK  129  A    between atoms: _324  and  _327
REMARK  130  A    between atoms: _327  and  _328
REMARK  131  A    between atoms: _331  and  _333
REMARK  132  A    between atoms: _333  and  _334
REMARK  133  A    between atoms: _333  and  _336
REMARK  134  A    between atoms: _336  and  _337
REMARK  135  A    between atoms: _340  and  _342
REMARK  136  A    between atoms: _342  and  _343
REMARK  137  A    between atoms: _345  and  _347
REMARK  138  A    between atoms: _347  and  _348
REMARK  139  A    between atoms: _347  and  _350
REMARK  140  A    between atoms: _350  and  _351
REMARK  141  A    between atoms: _361  and  _363
REMARK  142  A    between atoms: _363  and  _364
REMARK  143  A    between atoms: _366  and  _368
REMARK  144  A    between atoms: _368  and  _369
REMARK  145  A    between atoms: _368  and  _371
REMARK  146  A    between atoms: _371  and  _372
REMARK  147  A    between atoms: _375  and  _377
REMARK  148  A    between atoms: _377  and  _378
REMARK  149  A    between atoms: _377  and  _380
REMARK  150  A    between atoms: _380  and  _381
REMARK  151  A    between atoms: _386  and  _388
REMARK  152  A    between atoms: _388  and  _389
REMARK  153  A    between atoms: _388  and  _391
REMARK  154  A    between atoms: _391  and  _392
REMARK  155  A    between atoms: _397  and  _399
REMARK  156  A    between atoms: _399  and  _400
REMARK  157  A    between atoms: _399  and  _402
REMARK  158  A    between atoms: _402  and  _403
REMARK                            x       y       z     vdW  Elec       q    Type
REMARK                         _______ _______ _______ _____ _____    ______ ____
ROOT
ATOM      1  CA  TRP A   2      27.345  -0.864  43.814  0.00  0.00    +0.153 C 
ENDROOT
BRANCH   1   4
ATOM      2  C   MET A   1      28.894  -1.957  45.329  0.00  0.00    +0.238 C 
ATOM      3  O   MET A   1      27.991  -2.591  45.871  0.00  0.00    -0.274 OA
ATOM      4  N   TRP A   2      28.679  -1.039  44.410  0.00  0.00    -0.297 N 
ATOM      5  H   TRP A   2      29.463  -0.429  44.101  0.00  0.00    +0.150 HD
BRANCH   2   6
ATOM      6  CA  MET A   1      30.353  -2.184  45.706  0.00  0.00    +0.146 C 
BRANCH   6   7
ATOM      7  N   MET A   1      30.390  -2.680  47.072  0.00  0.00    -0.238 NA
ATOM      8  H   MET A   1      29.632  -3.309  47.405  0.00  0.00    +0.142 HD
ENDBRANCH   6   7
BRANCH   6   9
ATOM      9  CB  MET A   1      30.969  -3.178  44.737  0.00  0.00    +0.038 C 
BRANCH   9  10
ATOM     10  CG  MET A   1      30.122  -4.440  44.554  0.00  0.00    +0.060 C 
BRANCH  10  11
ATOM     11  SD  MET A   1      30.947  -5.723  43.619  0.00  0.00    -0.139 S 
ATOM     12  CE  MET A   1      31.028  -4.935  42.022  0.00  0.00    +0.069 C 
ENDBRANCH  10  11
ENDBRANCH   9  10
ENDBRANCH   6   9
ENDBRANCH   2   6
ENDBRANCH   1   4
BRANCH   1  13
ATOM     13  C   TRP A   2      27.041  -2.104  43.002  0.00  0.00    +0.241 C 
ATOM     14  N   SER A   3      25.800  -2.574  43.048  0.00  0.00    -0.295 N 
ATOM     15  H   SER A   3      25.050  -2.007  43.492  0.00  0.00    +0.150 HD
ATOM     16  O   TRP A   2      27.898  -2.655  42.311  0.00  0.00    -0.273 OA
BRANCH  14  17
ATOM     17  CA  SER A   3      25.479  -3.879  42.481  0.00  0.00    +0.178 C 
BRANCH  17  18
ATOM     18  C   SER A   3      24.997  -3.926  41.029  0.00  0.00    +0.243 C 
ATOM     19  O   SER A   3      24.797  -5.024  40.477  0.00  0.00    -0.273 OA
ATOM     20  N   ASP A   4      24.761  -2.767  40.419  0.00  0.00    -0.297 N 
ATOM     21  H   ASP A   4      25.099  -1.881  40.845  0.00  0.00    +0.150 HD
BRANCH  20  22
ATOM     22  CA  ASP A   4      24.032  -2.732  39.158  0.00  0.00    +0.148 C 
BRANCH  22  23
ATOM     23  C   ASP A   4      24.635  -3.484  37.975  0.00  0.00    +0.227 C 
ATOM     24  O   ASP A   4      23.893  -3.937  37.105  0.00  0.00    -0.286 OA
ENDBRANCH  22  23
BRANCH  22  25
ATOM     25  CB  ASP A   4      23.718  -1.295  38.748  0.00  0.00    +0.142 C 
BRANCH  25  26
ATOM     26  CG  ASP A   4      24.944  -0.423  38.683  0.00  0.00    +0.367 C 
ATOM     27  OD2 ASP A   4      25.514  -0.203  39.764  0.00  0.00    -0.246 OA
ATOM     28  OD1 ASP A   4      25.296   0.078  37.597  0.00  0.00    -0.246 OA
ENDBRANCH  25  26
ENDBRANCH  22  25
ENDBRANCH  20  22
ENDBRANCH  17  18
BRANCH  17  29
ATOM     29  CB  SER A   3      24.412  -4.541  43.337  0.00  0.00    +0.166 C 
BRANCH  29  30
ATOM     30  OG  SER A   3      23.154  -3.939  43.131  0.00  0.00    -0.380 OA
ATOM     31  H   SER A   3      22.478  -4.387  43.699  0.00  0.00    +0.211 HD
ENDBRANCH  29  30
ENDBRANCH  17  29
ENDBRANCH  14  17
ENDBRANCH   1  13
BRANCH   1  32
ATOM     32  CB  TRP A   2      27.319   0.390  42.913  0.00  0.00    +0.057 C 
BRANCH  32  33
ATOM     33  CG  TRP A   2      27.815   1.642  43.585  0.00  0.00    -0.002 A 
ATOM     34  CD2 TRP A   2      27.248   2.295  44.723  0.00  0.00    +0.013 A 
ATOM     35  CE3 TRP A   2      26.127   2.052  45.513  0.00  0.00    +0.001 A 
ATOM     36  CZ3 TRP A   2      25.860   2.907  46.551  0.00  0.00    +0.000 A 
ATOM     37  CH2 TRP A   2      26.660   4.006  46.820  0.00  0.00    +0.001 A 
ATOM     38  CZ2 TRP A   2      27.756   4.282  46.063  0.00  0.00    +0.017 A 
ATOM     39  CE2 TRP A   2      28.026   3.430  44.996  0.00  0.00    +0.056 A 
ATOM     40  NE1 TRP A   2      29.047   3.447  44.085  0.00  0.00    -0.352 N 
ATOM     41  HE1 TRP A   2      29.805   4.157  44.036  0.00  0.00    +0.166 HD
ATOM     42  CD1 TRP A   2      28.902   2.368  43.246  0.00  0.00    +0.068 A 
ENDBRANCH  32  33
ENDBRANCH   1  32
TORSDOF 17
REMARK  Name = ../refined-set-2016/2epn/2epn_pocket.pdb
REMARK  158 active torsions:
REMARK  status: ('A' for Active; 'I' for Inactive)
REMARK    1  A    between atoms: _1  and  _3
REMARK    2  A    between atoms: _3  and  _4
REMARK    3  A    between atoms: _3  and  _6
REMARK    4  A    between atoms: _6  and  _7
REMARK    5  A    between atoms: _7  and  _8
REMARK    6  A    between atoms: _10  and  _12
REMARK    7  A    between atoms: _12  and  _13
REMARK    8  A    between atoms: _12  and  _15
REMARK    9  A    between atoms: _15  and  _16
REMARK   10  A    between atoms: _19  and  _21
REMARK   11  A    between atoms: _21  and  _22
REMARK   12  A    between atoms: _21  and  _24
REMARK   13  A    between atoms: _24  and  _25
REMARK   14  A    between atoms: _25  and  _26
REMARK   15  A    between atoms: _26  and  _27
REMARK   16  A    between atoms: _36  and  _38
REMARK   17  A    between atoms: _38  and  _39
REMARK   18  A    between atoms: _38  and  _41
REMARK   19  A    between atoms: _41  and  _42
REMARK   20  A    between atoms: _47  and  _48
REMARK   21  A    between atoms: _50  and  _52
REMARK   22  A    between atoms: _52  and  _53
REMARK   23  A    between atoms: _52  and  _55
REMARK   24  A    between atoms: _55  and  _56
REMARK   25  A    between atoms: _56  and  _57
REMARK   26  A    between atoms: _60  and  _62
REMARK   27  A    between atoms: _62  and  _63
REMARK   28  A    between atoms: _62  and  _65
REMARK   29  A    between atoms: _65  and  _66
REMARK   30  A    between atoms: _66  and  _67
REMARK   31  A    between atoms: _72  and  _74
REMARK   32  A    between atoms: _74  and  _75
REMARK   33  A    between atoms: _74  and  _77
REMARK   34  A    between atoms: _77  and  _78
REMARK   35  A    between atoms: _83  and  _85
REMARK   36  A    between atoms: _85  and  _86
REMARK   37  A    between atoms: _85  and  _88
REMARK   38  A    between atoms: _88  and  _89
REMARK   39  A    between atoms: _94  and  _96
REMARK   40  A    between atoms: _96  and  _97
REMARK   41  A    between atoms: _99  and  _101
REMARK   42  A    between atoms: _101  and  _102
REMARK   43  A    between atoms: _101  and  _104
REMARK   44  A    between atoms: _104  and  _105
REMARK   45  A    between atoms: _105  and  _106
REMARK   46  A    between atoms: _108  and  _110
REMARK   47  A    between atoms: _110  and  _111
REMARK   48  A    between atoms: _110  and  _113
REMARK   49  A    between atoms: _113  and  _114
REMARK   50  A    between atoms: _117  and  _119
REMARK   51  A    between atoms: _119  and  _120
REMARK   52  A    between atoms: _119  and  _122
REMARK   53  A    between atoms: _122  and  _123
REMARK   54  A    between atoms: _123  and  _124
REMARK   55  A    between atoms: _127  and  _129
REMARK   56  A    between atoms: _129  and  _130
REMARK   57  A    between atoms: _129  and  _132
REMARK   58  A    between atoms: _132  and  _133
REMARK   59  A    between atoms: _133  and  _134
REMARK   60  A    between atoms: _136  and  _138
REMARK   61  A    between atoms: _138  and  _139
REMARK   62  A    between atoms: _138  and  _141
REMARK   63  A    between atoms: _141  and  _142
REMARK   64  A    between atoms: _152  and  _154
REMARK   65  A    between atoms: _154  and  _155
REMARK   66  A    between atoms: _154  and  _157
REMARK   67  A    between atoms: _157  and  _158
REMARK   68  A    between atoms: _160  and  _162
REMARK   69  A    between atoms: _162  and  _163
REMARK   70  A    between atoms: _162  and  _165
REMARK   71  A    between atoms: _165  and  _166
REMARK   72  A    between atoms: _169  and  _171
REMARK   73  A    between atoms: _171  and  _172
REMARK   74  A    between atoms: _171  and  _174
REMARK   75  A    between atoms: _174  and  _175
REMARK   76  A    between atoms: _175  and  _176
REMARK   77  A    between atoms: _176  and  _177
REMARK   78  A    between atoms: _177  and  _178
REMARK   79  A    between atoms: _182  and  _184
REMARK   80  A    between atoms: _184  and  _185
REMARK   81  A    between atoms: _184  and  _187
REMARK   82  A    between atoms: _187  and  _188
REMARK   83  A    between atoms: _193  and  _194
REMARK   84  A    between atoms: _196  and  _198
REMARK   85  A    between atoms: _198  and  _199
REMARK   86  A    between atoms: _198  and  _201
REMARK   87  A    between atoms: _204  and  _206
REMARK   88  A    between atoms: _206  and  _207
REMARK   89  A    between atoms: _206  and  _209
REMARK   90  A    between atoms: _209  and  _210
REMARK   91  A    between atoms: _215  and  _216
REMARK   92  A    between atoms: _218  and  _220
REMARK   93  A    between atoms: _220  and  _221
REMARK   94  A    between atoms: _220  and  _223
REMARK   95  A    between atoms: _223  and  _224
REMARK   96  A    between atoms: _234  and  _236
REMARK   97  A    between atoms: _236  and  _237
REMARK   98  A    between atoms: _236  and  _239
REMARK   99  A    between atoms: _239  and  _240
REMARK  100  A    between atoms: _243  and  _245
REMARK  101  A    between atoms: _245  and  _246
REMARK  102  A    between atoms: _245  and  _248
REMARK  103  A    between atoms: _248  and  _249
REMARK  104  A    between atoms: _254  and  _255
REMARK  105  A    between atoms: _257  and  _259
REMARK  106  A    between atoms: _259  and  _260
REMARK  107  A    between atoms: _259  and  _262
REMARK  108  A    between atoms: _262  and  _263
REMARK  109  A    between atoms: _268  and  _269
REMARK  110  A    between atoms: _271  and  _273
REMARK  111  A    between atoms: _273  and  _274
REMARK  112  A    between atoms: _277  and  _279
REMARK  113  A    between atoms: _279  and  _280
REMARK  114  A    between atoms: _279  and  _282
REMARK  115  A    between atoms: _282  and  _283
REMARK  116  A    between atoms: _293  and  _295
REMARK  117  A    between atoms: _295  and  _296
REMARK  118  A    between atoms: _295  and  _298
REMARK  119  A    between atoms: _298  and  _299
REMARK  120  A    between atoms: _299  and  _300
REMARK  121  A    between atoms: _300  and  _301
REMARK  122  A    between atoms: _301  and  _302
REMARK  123  A    between atoms: _306  and  _308
REMARK  124  A    between atoms: _308  and  _309
REMARK  125  A    between atoms: _308  and  _311
REMARK  126  A    between atoms: _311  and  _312
REMARK  127  A    between atoms: _322  and  _324
REMARK  128  A    between atoms: _324  and  _325
REMARK  129  A    between atoms: _324  and  _327
REMARK  130  A    between atoms: _327  and  _328
REMARK  131  A    between atoms: _331  and  _333
REMARK  132  A    between atoms: _333  and  _334
REMARK  133  A    between atoms: _333  and  _336
REMARK  134  A    between atoms: _336  and  _337
REMARK  135  A    between atoms: _340  and  _342
REMARK  136  A    between atoms: _342  and  _343
REMARK  137  A    between atoms: _345  and  _347
REMARK  138  A    between atoms: _347  and  _348
REMARK  139  A    between atoms: _347  and  _350
REMARK  140  A    between atoms: _350  and  _351
REMARK  141  A    between atoms: _361  and  _363
REMARK  142  A    between atoms: _363  and  _364
REMARK  143  A    between atoms: _366  and  _368
REMARK  144  A    between atoms: _368  and  _369
REMARK  145  A    between atoms: _368  and  _371
REMARK  146  A    between atoms: _371  and  _372
REMARK  147  A    between atoms: _375  and  _377
REMARK  148  A    between atoms: _377  and  _378
REMARK  149  A    between atoms: _377  and  _380
REMARK  150  A    between atoms: _380  and  _381
REMARK  151  A    between atoms: _386  and  _388
REMARK  152  A    between atoms: _388  and  _389
REMARK  153  A    between atoms: _388  and  _391
REMARK  154  A    between atoms: _391  and  _392
REMARK  155  A    between atoms: _397  and  _399
REMARK  156  A    between atoms: _399  and  _400
REMARK  157  A    between atoms: _399  and  _402
REMARK  158  A    between atoms: _402  and  _403
REMARK                            x       y       z     vdW  Elec       q    Type
REMARK                         _______ _______ _______ _____ _____    ______ ____
ROOT
ATOM      1  CG  LYS A   1      22.766  -2.738  34.217  0.00  0.00    -0.000 C 
ENDROOT
BRANCH   1   2
ATOM      2  CB  LYS A   1      23.568  -3.801  33.494  0.00  0.00    +0.025 C 
BRANCH   2   3
ATOM      3  CA  LYS A   1      22.868  -5.154  33.491  0.00  0.00    +0.133 C 
BRANCH   3   4
ATOM      4  N   LYS A   1      22.820  -5.679  34.857  0.00  0.00    -0.239 NA
ATOM      5  H   LYS A   1      23.305  -5.172  35.625  0.00  0.00    +0.142 HD
ENDBRANCH   3   4
BRANCH   3   6
ATOM      6  C   LYS A   1      23.598  -6.105  32.512  0.00  0.00    +0.224 C 
ATOM      7  O   LYS A   1      23.219  -6.223  31.347  0.00  0.00    -0.287 OA
ENDBRANCH   3   6
ENDBRANCH   2   3
ENDBRANCH   1   2
BRANCH   1   8
ATOM      8  CD  LYS A   1      23.591  -1.520  34.550  0.00  0.00    -0.024 C 
BRANCH   8   9
ATOM      9  CE  LYS A   1      22.750  -0.388  35.043  0.00  0.00    -0.086 C 
BRANCH   9  10
ATOM     10  NZ  LYS A   1      23.635   0.762  35.395  0.00  0.00    +0.380 N 
ATOM     11  HZ1 LYS A   1      24.301   0.471  36.139  0.00  0.00    -0.089 HD
ATOM     12  HZ2 LYS A   1      23.054   1.553  35.739  0.00  0.00    -0.089 HD
ATOM     13  HZ3 LYS A   1      24.165   1.061  34.552  0.00  0.00    -0.089 HD
ENDBRANCH   9  10
ENDBRANCH   8   9
ENDBRANCH   1   8
TORSDOF 7
REMARK  Name = ../refined-set-2016/2epn/2epn_pocket.pdb
REMARK  158 active torsions:
REMARK  status: ('A' for Active; 'I' for Inactive)
REMARK    1  A    between atoms: _1  and  _3
REMARK    2  A    between atoms: _3  and  _4
REMARK    3  A    between atoms: _3  and  _6
REMARK    4  A    between atoms: _6  and  _7
REMARK    5  A    between atoms: _7  and  _8
REMARK    6  A    between atoms: _10  and  _12
REMARK    7  A    between atoms: _12  and  _13
REMARK    8  A    between atoms: _12  and  _15
REMARK    9  A    between atoms: _15  and  _16
REMARK   10  A    between atoms: _19  and  _21
REMARK   11  A    between atoms: _21  and  _22
REMARK   12  A    between atoms: _21  and  _24
REMARK   13  A    between atoms: _24  and  _25
REMARK   14  A    between atoms: _25  and  _26
REMARK   15  A    between atoms: _26  and  _27
REMARK   16  A    between atoms: _36  and  _38
REMARK   17  A    between atoms: _38  and  _39
REMARK   18  A    between atoms: _38  and  _41
REMARK   19  A    between atoms: _41  and  _42
REMARK   20  A    between atoms: _47  and  _48
REMARK   21  A    between atoms: _50  and  _52
REMARK   22  A    between atoms: _52  and  _53
REMARK   23  A    between atoms: _52  and  _55
REMARK   24  A    between atoms: _55  and  _56
REMARK   25  A    between atoms: _56  and  _57
REMARK   26  A    between atoms: _60  and  _62
REMARK   27  A    between atoms: _62  and  _63
REMARK   28  A    between atoms: _62  and  _65
REMARK   29  A    between atoms: _65  and  _66
REMARK   30  A    between atoms: _66  and  _67
REMARK   31  A    between atoms: _72  and  _74
REMARK   32  A    between atoms: _74  and  _75
REMARK   33  A    between atoms: _74  and  _77
REMARK   34  A    between atoms: _77  and  _78
REMARK   35  A    between atoms: _83  and  _85
REMARK   36  A    between atoms: _85  and  _86
REMARK   37  A    between atoms: _85  and  _88
REMARK   38  A    between atoms: _88  and  _89
REMARK   39  A    between atoms: _94  and  _96
REMARK   40  A    between atoms: _96  and  _97
REMARK   41  A    between atoms: _99  and  _101
REMARK   42  A    between atoms: _101  and  _102
REMARK   43  A    between atoms: _101  and  _104
REMARK   44  A    between atoms: _104  and  _105
REMARK   45  A    between atoms: _105  and  _106
REMARK   46  A    between atoms: _108  and  _110
REMARK   47  A    between atoms: _110  and  _111
REMARK   48  A    between atoms: _110  and  _113
REMARK   49  A    between atoms: _113  and  _114
REMARK   50  A    between atoms: _117  and  _119
REMARK   51  A    between atoms: _119  and  _120
REMARK   52  A    between atoms: _119  and  _122
REMARK   53  A    between atoms: _122  and  _123
REMARK   54  A    between atoms: _123  and  _124
REMARK   55  A    between atoms: _127  and  _129
REMARK   56  A    between atoms: _129  and  _130
REMARK   57  A    between atoms: _129  and  _132
REMARK   58  A    between atoms: _132  and  _133
REMARK   59  A    between atoms: _133  and  _134
REMARK   60  A    between atoms: _136  and  _138
REMARK   61  A    between atoms: _138  and  _139
REMARK   62  A    between atoms: _138  and  _141
REMARK   63  A    between atoms: _141  and  _142
REMARK   64  A    between atoms: _152  and  _154
REMARK   65  A    between atoms: _154  and  _155
REMARK   66  A    between atoms: _154  and  _157
REMARK   67  A    between atoms: _157  and  _158
REMARK   68  A    between atoms: _160  and  _162
REMARK   69  A    between atoms: _162  and  _163
REMARK   70  A    between atoms: _162  and  _165
REMARK   71  A    between atoms: _165  and  _166
REMARK   72  A    between atoms: _169  and  _171
REMARK   73  A    between atoms: _171  and  _172
REMARK   74  A    between atoms: _171  and  _174
REMARK   75  A    between atoms: _174  and  _175
REMARK   76  A    between atoms: _175  and  _176
REMARK   77  A    between atoms: _176  and  _177
REMARK   78  A    between atoms: _177  and  _178
REMARK   79  A    between atoms: _182  and  _184
REMARK   80  A    between atoms: _184  and  _185
REMARK   81  A    between atoms: _184  and  _187
REMARK   82  A    between atoms: _187  and  _188
REMARK   83  A    between atoms: _193  and  _194
REMARK   84  A    between atoms: _196  and  _198
REMARK   85  A    between atoms: _198  and  _199
REMARK   86  A    between atoms: _198  and  _201
REMARK   87  A    between atoms: _204  and  _206
REMARK   88  A    between atoms: _206  and  _207
REMARK   89  A    between atoms: _206  and  _209
REMARK   90  A    between atoms: _209  and  _210
REMARK   91  A    between atoms: _215  and  _216
REMARK   92  A    between atoms: _218  and  _220
REMARK   93  A    between atoms: _220  and  _221
REMARK   94  A    between atoms: _220  and  _223
REMARK   95  A    between atoms: _223  and  _224
REMARK   96  A    between atoms: _234  and  _236
REMARK   97  A    between atoms: _236  and  _237
REMARK   98  A    between atoms: _236  and  _239
REMARK   99  A    between atoms: _239  and  _240
REMARK  100  A    between atoms: _243  and  _245
REMARK  101  A    between atoms: _245  and  _246
REMARK  102  A    between atoms: _245  and  _248
REMARK  103  A    between atoms: _248  and  _249
REMARK  104  A    between atoms: _254  and  _255
REMARK  105  A    between atoms: _257  and  _259
REMARK  106  A    between atoms: _259  and  _260
REMARK  107  A    between atoms: _259  and  _262
REMARK  108  A    between atoms: _262  and  _263
REMARK  109  A    between atoms: _268  and  _269
REMARK  110  A    between atoms: _271  and  _273
REMARK  111  A    between atoms: _273  and  _274
REMARK  112  A    between atoms: _277  and  _279
REMARK  113  A    between atoms: _279  and  _280
REMARK  114  A    between atoms: _279  and  _282
REMARK  115  A    between atoms: _282  and  _283
REMARK  116  A    between atoms: _293  and  _295
REMARK  117  A    between atoms: _295  and  _296
REMARK  118  A    between atoms: _295  and  _298
REMARK  119  A    between atoms: _298  and  _299
REMARK  120  A    between atoms: _299  and  _300
REMARK  121  A    between atoms: _300  and  _301
REMARK  122  A    between atoms: _301  and  _302
REMARK  123  A    between atoms: _306  and  _308
REMARK  124  A    between atoms: _308  and  _309
REMARK  125  A    between atoms: _308  and  _311
REMARK  126  A    between atoms: _311  and  _312
REMARK  127  A    between atoms: _322  and  _324
REMARK  128  A    between atoms: _324  and  _325
REMARK  129  A    between atoms: _324  and  _327
REMARK  130  A    between atoms: _327  and  _328
REMARK  131  A    between atoms: _331  and  _333
REMARK  132  A    between atoms: _333  and  _334
REMARK  133  A    between atoms: _333  and  _336
REMARK  134  A    between atoms: _336  and  _337
REMARK  135  A    between atoms: _340  and  _342
REMARK  136  A    between atoms: _342  and  _343
REMARK  137  A    between atoms: _345  and  _347
REMARK  138  A    between atoms: _347  and  _348
REMARK  139  A    between atoms: _347  and  _350
REMARK  140  A    between atoms: _350  and  _351
REMARK  141  A    between atoms: _361  and  _363
REMARK  142  A    between atoms: _363  and  _364
REMARK  143  A    between atoms: _366  and  _368
REMARK  144  A    between atoms: _368  and  _369
REMARK  145  A    between atoms: _368  and  _371
REMARK  146  A    between atoms: _371  and  _372
REMARK  147  A    between atoms: _375  and  _377
REMARK  148  A    between atoms: _377  and  _378
REMARK  149  A    between atoms: _377  and  _380
REMARK  150  A    between atoms: _380  and  _381
REMARK  151  A    between atoms: _386  and  _388
REMARK  152  A    between atoms: _388  and  _389
REMARK  153  A    between atoms: _388  and  _391
REMARK  154  A    between atoms: _391  and  _392
REMARK  155  A    between atoms: _397  and  _399
REMARK  156  A    between atoms: _399  and  _400
REMARK  157  A    between atoms: _399  and  _402
REMARK  158  A    between atoms: _402  and  _403
REMARK                            x       y       z     vdW  Elec       q    Type
REMARK                         _______ _______ _______ _____ _____    ______ ____
ROOT
ATOM      1  CG  TYR A   1      19.994  -1.893  38.852  0.00  0.00    -0.020 A 
ATOM      2  CD2 TYR A   1      20.071  -0.720  39.587  0.00  0.00    -0.001 A 
ATOM      3  CE2 TYR A   1      20.620  -0.677  40.844  0.00  0.00    +0.036 A 
ATOM      4  CZ  TYR A   1      21.112  -1.814  41.417  0.00  0.00    +0.134 A 
ATOM      5  CE1 TYR A   1      21.060  -3.024  40.728  0.00  0.00    +0.036 A 
ATOM      6  CD1 TYR A   1      20.493  -3.059  39.443  0.00  0.00    -0.001 A 
ENDROOT
BRANCH   4   7
ATOM      7  OH  TYR A   1      21.703  -1.726  42.663  0.00  0.00    -0.506 OA
ATOM      8  HH  TYR A   1      22.654  -1.993  42.595  0.00  0.00    +0.292 HD
ENDBRANCH   4   7
BRANCH   1   9
ATOM      9  CB  TYR A   1      19.387  -1.860  37.455  0.00  0.00    +0.051 C 
BRANCH   9  10
ATOM     10  CA  TYR A   1      19.176  -3.183  36.700  0.00  0.00    +0.137 C 
BRANCH  10  11
ATOM     11  N   TYR A   1      18.878  -2.847  35.294  0.00  0.00    -0.239 NA
ATOM     12  H   TYR A   1      18.533  -1.889  35.081  0.00  0.00    +0.142 HD
ENDBRANCH  10  11
BRANCH  10  13
ATOM     13  C   TYR A   1      18.052  -3.958  37.370  0.00  0.00    +0.224 C 
ATOM     14  O   TYR A   1      18.297  -4.917  38.082  0.00  0.00    -0.287 OA
ENDBRANCH  10  13
ENDBRANCH   9  10
ENDBRANCH   1   9
TORSDOF 5
REMARK  Name = ../refined-set-2016/2epn/2epn_pocket.pdb
REMARK  158 active torsions:
REMARK  status: ('A' for Active; 'I' for Inactive)
REMARK    1  A    between atoms: _1  and  _3
REMARK    2  A    between atoms: _3  and  _4
REMARK    3  A    between atoms: _3  and  _6
REMARK    4  A    between atoms: _6  and  _7
REMARK    5  A    between atoms: _7  and  _8
REMARK    6  A    between atoms: _10  and  _12
REMARK    7  A    between atoms: _12  and  _13
REMARK    8  A    between atoms: _12  and  _15
REMARK    9  A    between atoms: _15  and  _16
REMARK   10  A    between atoms: _19  and  _21
REMARK   11  A    between atoms: _21  and  _22
REMARK   12  A    between atoms: _21  and  _24
REMARK   13  A    between atoms: _24  and  _25
REMARK   14  A    between atoms: _25  and  _26
REMARK   15  A    between atoms: _26  and  _27
REMARK   16  A    between atoms: _36  and  _38
REMARK   17  A    between atoms: _38  and  _39
REMARK   18  A    between atoms: _38  and  _41
REMARK   19  A    between atoms: _41  and  _42
REMARK   20  A    between atoms: _47  and  _48
REMARK   21  A    between atoms: _50  and  _52
REMARK   22  A    between atoms: _52  and  _53
REMARK   23  A    between atoms: _52  and  _55
REMARK   24  A    between atoms: _55  and  _56
REMARK   25  A    between atoms: _56  and  _57
REMARK   26  A    between atoms: _60  and  _62
REMARK   27  A    between atoms: _62  and  _63
REMARK   28  A    between atoms: _62  and  _65
REMARK   29  A    between atoms: _65  and  _66
REMARK   30  A    between atoms: _66  and  _67
REMARK   31  A    between atoms: _72  and  _74
REMARK   32  A    between atoms: _74  and  _75
REMARK   33  A    between atoms: _74  and  _77
REMARK   34  A    between atoms: _77  and  _78
REMARK   35  A    between atoms: _83  and  _85
REMARK   36  A    between atoms: _85  and  _86
REMARK   37  A    between atoms: _85  and  _88
REMARK   38  A    between atoms: _88  and  _89
REMARK   39  A    between atoms: _94  and  _96
REMARK   40  A    between atoms: _96  and  _97
REMARK   41  A    between atoms: _99  and  _101
REMARK   42  A    between atoms: _101  and  _102
REMARK   43  A    between atoms: _101  and  _104
REMARK   44  A    between atoms: _104  and  _105
REMARK   45  A    between atoms: _105  and  _106
REMARK   46  A    between atoms: _108  and  _110
REMARK   47  A    between atoms: _110  and  _111
REMARK   48  A    between atoms: _110  and  _113
REMARK   49  A    between atoms: _113  and  _114
REMARK   50  A    between atoms: _117  and  _119
REMARK   51  A    between atoms: _119  and  _120
REMARK   52  A    between atoms: _119  and  _122
REMARK   53  A    between atoms: _122  and  _123
REMARK   54  A    between atoms: _123  and  _124
REMARK   55  A    between atoms: _127  and  _129
REMARK   56  A    between atoms: _129  and  _130
REMARK   57  A    between atoms: _129  and  _132
REMARK   58  A    between atoms: _132  and  _133
REMARK   59  A    between atoms: _133  and  _134
REMARK   60  A    between atoms: _136  and  _138
REMARK   61  A    between atoms: _138  and  _139
REMARK   62  A    between atoms: _138  and  _141
REMARK   63  A    between atoms: _141  and  _142
REMARK   64  A    between atoms: _152  and  _154
REMARK   65  A    between atoms: _154  and  _155
REMARK   66  A    between atoms: _154  and  _157
REMARK   67  A    between atoms: _157  and  _158
REMARK   68  A    between atoms: _160  and  _162
REMARK   69  A    between atoms: _162  and  _163
REMARK   70  A    between atoms: _162  and  _165
REMARK   71  A    between atoms: _165  and  _166
REMARK   72  A    between atoms: _169  and  _171
REMARK   73  A    between atoms: _171  and  _172
REMARK   74  A    between atoms: _171  and  _174
REMARK   75  A    between atoms: _174  and  _175
REMARK   76  A    between atoms: _175  and  _176
REMARK   77  A    between atoms: _176  and  _177
REMARK   78  A    between atoms: _177  and  _178
REMARK   79  A    between atoms: _182  and  _184
REMARK   80  A    between atoms: _184  and  _185
REMARK   81  A    between atoms: _184  and  _187
REMARK   82  A    between atoms: _187  and  _188
REMARK   83  A    between atoms: _193  and  _194
REMARK   84  A    between atoms: _196  and  _198
REMARK   85  A    between atoms: _198  and  _199
REMARK   86  A    between atoms: _198  and  _201
REMARK   87  A    between atoms: _204  and  _206
REMARK   88  A    between atoms: _206  and  _207
REMARK   89  A    between atoms: _206  and  _209
REMARK   90  A    between atoms: _209  and  _210
REMARK   91  A    between atoms: _215  and  _216
REMARK   92  A    between atoms: _218  and  _220
REMARK   93  A    between atoms: _220  and  _221
REMARK   94  A    between atoms: _220  and  _223
REMARK   95  A    between atoms: _223  and  _224
REMARK   96  A    between atoms: _234  and  _236
REMARK   97  A    between atoms: _236  and  _237
REMARK   98  A    between atoms: _236  and  _239
REMARK   99  A    between atoms: _239  and  _240
REMARK  100  A    between atoms: _243  and  _245
REMARK  101  A    between atoms: _245  and  _246
REMARK  102  A    between atoms: _245  and  _248
REMARK  103  A    between atoms: _248  and  _249
REMARK  104  A    between atoms: _254  and  _255
REMARK  105  A    between atoms: _257  and  _259
REMARK  106  A    between atoms: _259  and  _260
REMARK  107  A    between atoms: _259  and  _262
REMARK  108  A    between atoms: _262  and  _263
REMARK  109  A    between atoms: _268  and  _269
REMARK  110  A    between atoms: _271  and  _273
REMARK  111  A    between atoms: _273  and  _274
REMARK  112  A    between atoms: _277  and  _279
REMARK  113  A    between atoms: _279  and  _280
REMARK  114  A    between atoms: _279  and  _282
REMARK  115  A    between atoms: _282  and  _283
REMARK  116  A    between atoms: _293  and  _295
REMARK  117  A    between atoms: _295  and  _296
REMARK  118  A    between atoms: _295  and  _298
REMARK  119  A    between atoms: _298  and  _299
REMARK  120  A    between atoms: _299  and  _300
REMARK  121  A    between atoms: _300  and  _301
REMARK  122  A    between atoms: _301  and  _302
REMARK  123  A    between atoms: _306  and  _308
REMARK  124  A    between atoms: _308  and  _309
REMARK  125  A    between atoms: _308  and  _311
REMARK  126  A    between atoms: _311  and  _312
REMARK  127  A    between atoms: _322  and  _324
REMARK  128  A    between atoms: _324  and  _325
REMARK  129  A    between atoms: _324  and  _327
REMARK  130  A    between atoms: _327  and  _328
REMARK  131  A    between atoms: _331  and  _333
REMARK  132  A    between atoms: _333  and  _334
REMARK  133  A    between atoms: _333  and  _336
REMARK  134  A    between atoms: _336  and  _337
REMARK  135  A    between atoms: _340  and  _342
REMARK  136  A    between atoms: _342  and  _343
REMARK  137  A    between atoms: _345  and  _347
REMARK  138  A    between atoms: _347  and  _348
REMARK  139  A    between atoms: _347  and  _350
REMARK  140  A    between atoms: _350  and  _351
REMARK  141  A    between atoms: _361  and  _363
REMARK  142  A    between atoms: _363  and  _364
REMARK  143  A    between atoms: _366  and  _368
REMARK  144  A    between atoms: _368  and  _369
REMARK  145  A    between atoms: _368  and  _371
REMARK  146  A    between atoms: _371  and  _372
REMARK  147  A    between atoms: _375  and  _377
REMARK  148  A    between atoms: _377  and  _378
REMARK  149  A    between atoms: _377  and  _380
REMARK  150  A    between atoms: _380  and  _381
REMARK  151  A    between atoms: _386  and  _388
REMARK  152  A    between atoms: _388  and  _389
REMARK  153  A    between atoms: _388  and  _391
REMARK  154  A    between atoms: _391  and  _392
REMARK  155  A    between atoms: _397  and  _399
REMARK  156  A    between atoms: _399  and  _400
REMARK  157  A    between atoms: _399  and  _402
REMARK  158  A    between atoms: _402  and  _403
REMARK                            x       y       z     vdW  Elec       q    Type
REMARK                         _______ _______ _______ _____ _____    ______ ____
ROOT
ATOM      1  C   TRP A   3      19.441   1.668  44.370  0.00  0.00    +0.241 C 
ATOM      2  N   ASP A   4      18.515   2.428  44.959  0.00  0.00    -0.297 N 
ATOM      3  H   ASP A   4      18.711   2.838  45.895  0.00  0.00    +0.150 HD
ATOM      4  O   TRP A   3      19.307   1.195  43.255  0.00  0.00    -0.273 OA
ENDROOT
BRANCH   2   5
ATOM      5  CA  ASP A   4      17.228   2.696  44.313  0.00  0.00    +0.160 C 
BRANCH   5   6
ATOM      6  C   ASP A   4      16.565   3.876  45.022  0.00  0.00    +0.241 C 
ATOM      7  O   ASP A   4      16.254   3.814  46.218  0.00  0.00    -0.273 OA
ATOM      8  N   TYR A   5      16.352   4.941  44.263  0.00  0.00    -0.297 N 
ATOM      9  H   TYR A   5      16.554   4.880  43.245  0.00  0.00    +0.150 HD
BRANCH   8  10
ATOM     10  CA  TYR A   5      15.840   6.205  44.809  0.00  0.00    +0.153 C 
BRANCH  10  11
ATOM     11  C   TYR A   5      14.459   6.532  44.286  0.00  0.00    +0.241 C 
ATOM     12  O   TYR A   5      13.976   7.647  44.508  0.00  0.00    -0.273 OA
ATOM     13  N   TYR A   6      13.834   5.554  43.619  0.00  0.00    -0.298 N 
ATOM     14  H   TYR A   6      14.140   4.569  43.754  0.00  0.00    +0.150 HD
BRANCH  13  15
ATOM     15  CA  TYR A   6      12.720   5.844  42.697  0.00  0.00    +0.141 C 
BRANCH  15  16
ATOM     16  C   TYR A   6      11.364   5.218  43.001  0.00  0.00    +0.227 C 
ATOM     17  O   TYR A   6      10.362   5.759  42.537  0.00  0.00    -0.286 OA
ENDBRANCH  15  16
BRANCH  15  18
ATOM     18  CB  TYR A   6      13.118   5.467  41.256  0.00  0.00    +0.054 C 
BRANCH  18  19
ATOM     19  CG  TYR A   6      14.537   5.887  40.893  0.00  0.00    -0.020 A 
ATOM     20  CD2 TYR A   6      15.574   4.947  40.883  0.00  0.00    -0.001 A 
ATOM     21  CE2 TYR A   6      16.873   5.338  40.582  0.00  0.00    +0.036 A 
ATOM     22  CZ  TYR A   6      17.144   6.658  40.249  0.00  0.00    +0.134 A 
ATOM     23  CE1 TYR A   6      16.137   7.602  40.259  0.00  0.00    +0.036 A 
ATOM     24  CD1 TYR A   6      14.839   7.213  40.580  0.00  0.00    -0.001 A 
BRANCH  22  25
ATOM     25  OH  TYR A   6      18.462   6.995  39.955  0.00  0.00    -0.506 OA
ATOM     26  HH  TYR A   6      18.514   7.959  39.736  0.00  0.00    +0.292 HD
ENDBRANCH  22  25
ENDBRANCH  18  19
ENDBRANCH  15  18
ENDBRANCH  13  15
ENDBRANCH  10  11
BRANCH  10  27
ATOM     27  CB  TYR A   5      16.774   7.332  44.382  0.00  0.00    +0.055 C 
BRANCH  27  28
ATOM     28  CG  TYR A   5      18.198   6.955  44.603  0.00  0.00    -0.020 A 
ATOM     29  CD2 TYR A   5      18.637   6.623  45.867  0.00  0.00    -0.001 A 
ATOM     30  CE2 TYR A   5      19.941   6.261  46.113  0.00  0.00    +0.036 A 
ATOM     31  CZ  TYR A   5      20.816   6.232  45.077  0.00  0.00    +0.134 A 
ATOM     32  CE1 TYR A   5      20.400   6.557  43.799  0.00  0.00    +0.036 A 
ATOM     33  CD1 TYR A   5      19.096   6.920  43.568  0.00  0.00    -0.001 A 
BRANCH  31  34
ATOM     34  OH  TYR A   5      22.119   5.848  45.341  0.00  0.00    -0.506 OA
ATOM     35  HH  TYR A   5      22.217   5.659  46.308  0.00  0.00    +0.292 HD
ENDBRANCH  31  34
ENDBRANCH  27  28
ENDBRANCH  10  27
ENDBRANCH   8  10
ENDBRANCH   5   6
BRANCH   5  36
ATOM     36  CB  ASP A   4      16.363   1.441  44.387  0.00  0.00    +0.143 C 
BRANCH  36  37
ATOM     37  CG  ASP A   4      15.137   1.517  43.502  0.00  0.00    +0.367 C 
ATOM     38  OD2 ASP A   4      14.643   2.627  43.264  0.00  0.00    -0.246 OA
ATOM     39  OD1 ASP A   4      14.679   0.443  43.042  0.00  0.00    -0.246 OA
ENDBRANCH  36  37
ENDBRANCH   5  36
ENDBRANCH   2   5
BRANCH   1  40
ATOM     40  CA  TRP A   3      20.701   1.392  45.183  0.00  0.00    +0.153 C 
BRANCH  40  43
ATOM     41  C   TYR A   2      20.970  -0.813  46.197  0.00  0.00    +0.241 C 
ATOM     42  O   TYR A   2      20.605  -0.419  47.319  0.00  0.00    -0.273 OA
ATOM     43  N   TRP A   3      21.078  -0.017  45.139  0.00  0.00    -0.297 N 
ATOM     44  H   TRP A   3      21.444  -0.411  44.249  0.00  0.00    +0.150 HD
BRANCH  41  45
ATOM     45  CA  TYR A   2      21.348  -2.253  45.953  0.00  0.00    +0.153 C 
BRANCH  45  47
ATOM     46  C   VAL A   1      23.764  -2.154  46.458  0.00  0.00    +0.238 C 
ATOM     47  N   TYR A   2      22.512  -2.495  46.777  0.00  0.00    -0.297 N 
ATOM     48  H   TYR A   2      22.363  -2.972  47.689  0.00  0.00    +0.150 HD
ATOM     49  O   VAL A   1      24.128  -1.735  45.351  0.00  0.00    -0.274 OA
BRANCH  46  50
ATOM     50  CA  VAL A   1      24.791  -2.380  47.559  0.00  0.00    +0.145 C 
BRANCH  50  51
ATOM     51  CB  VAL A   1      25.545  -1.067  47.844  0.00  0.00    +0.025 C 
ATOM     52  CG2 VAL A   1      26.692  -1.290  48.859  0.00  0.00    +0.002 C 
ATOM     53  CG1 VAL A   1      24.531   0.008  48.314  0.00  0.00    +0.002 C 
ENDBRANCH  50  51
BRANCH  50  54
ATOM     54  N   VAL A   1      25.692  -3.455  47.183  0.00  0.00    -0.238 NA
ATOM     55  H   VAL A   1      26.380  -3.288  46.421  0.00  0.00    +0.142 HD
ENDBRANCH  50  54
ENDBRANCH  46  50
ENDBRANCH  45  47
BRANCH  45  56
ATOM     56  CB  TYR A   2      20.220  -3.222  46.338  0.00  0.00    +0.055 C 
BRANCH  56  57
ATOM     57  CG  TYR A   2      18.868  -2.838  45.827  0.00  0.00    -0.020 A 
ATOM     58  CD2 TYR A   2      17.739  -3.051  46.614  0.00  0.00    -0.001 A 
ATOM     59  CE2 TYR A   2      16.467  -2.674  46.182  0.00  0.00    +0.036 A 
ATOM     60  CZ  TYR A   2      16.320  -2.104  44.969  0.00  0.00    +0.134 A 
ATOM     61  CE1 TYR A   2      17.403  -1.891  44.149  0.00  0.00    +0.036 A 
ATOM     62  CD1 TYR A   2      18.698  -2.276  44.581  0.00  0.00    -0.001 A 
BRANCH  60  63
ATOM     63  OH  TYR A   2      15.068  -1.724  44.561  0.00  0.00    -0.506 OA
ATOM     64  HH  TYR A   2      15.124  -1.325  43.657  0.00  0.00    +0.292 HD
ENDBRANCH  60  63
ENDBRANCH  56  57
ENDBRANCH  45  56
ENDBRANCH  41  45
ENDBRANCH  40  43
BRANCH  40  65
ATOM     65  CB  TRP A   3      21.879   2.261  44.687  0.00  0.00    +0.057 C 
BRANCH  65  66
ATOM     66  CG  TRP A   3      22.380   1.991  43.314  0.00  0.00    -0.002 A 
ATOM     67  CD1 TRP A   3      23.400   1.153  42.972  0.00  0.00    +0.068 A 
ATOM     68  NE1 TRP A   3      23.629   1.205  41.629  0.00  0.00    -0.352 N 
ATOM     69  HE1 TRP A   3      24.344   0.649  41.118  0.00  0.00    +0.166 HD
ATOM     70  CE2 TRP A   3      22.766   2.109  41.058  0.00  0.00    +0.056 A 
ATOM     71  CZ2 TRP A   3      22.600   2.482  39.727  0.00  0.00    +0.017 A 
ATOM     72  CH2 TRP A   3      21.646   3.428  39.453  0.00  0.00    +0.001 A 
ATOM     73  CZ3 TRP A   3      20.837   3.958  40.452  0.00  0.00    +0.000 A 
ATOM     74  CE3 TRP A   3      20.976   3.561  41.765  0.00  0.00    +0.001 A 
ATOM     75  CD2 TRP A   3      21.953   2.618  42.088  0.00  0.00    +0.013 A 
ENDBRANCH  65  66
ENDBRANCH  40  65
ENDBRANCH   1  40
TORSDOF 26
REMARK  Name = ../refined-set-2016/2epn/2epn_pocket.pdb
REMARK  158 active torsions:
REMARK  status: ('A' for Active; 'I' for Inactive)
REMARK    1  A    between atoms: _1  and  _3
REMARK    2  A    between atoms: _3  and  _4
REMARK    3  A    between atoms: _3  and  _6
REMARK    4  A    between atoms: _6  and  _7
REMARK    5  A    between atoms: _7  and  _8
REMARK    6  A    between atoms: _10  and  _12
REMARK    7  A    between atoms: _12  and  _13
REMARK    8  A    between atoms: _12  and  _15
REMARK    9  A    between atoms: _15  and  _16
REMARK   10  A    between atoms: _19  and  _21
REMARK   11  A    between atoms: _21  and  _22
REMARK   12  A    between atoms: _21  and  _24
REMARK   13  A    between atoms: _24  and  _25
REMARK   14  A    between atoms: _25  and  _26
REMARK   15  A    between atoms: _26  and  _27
REMARK   16  A    between atoms: _36  and  _38
REMARK   17  A    between atoms: _38  and  _39
REMARK   18  A    between atoms: _38  and  _41
REMARK   19  A    between atoms: _41  and  _42
REMARK   20  A    between atoms: _47  and  _48
REMARK   21  A    between atoms: _50  and  _52
REMARK   22  A    between atoms: _52  and  _53
REMARK   23  A    between atoms: _52  and  _55
REMARK   24  A    between atoms: _55  and  _56
REMARK   25  A    between atoms: _56  and  _57
REMARK   26  A    between atoms: _60  and  _62
REMARK   27  A    between atoms: _62  and  _63
REMARK   28  A    between atoms: _62  and  _65
REMARK   29  A    between atoms: _65  and  _66
REMARK   30  A    between atoms: _66  and  _67
REMARK   31  A    between atoms: _72  and  _74
REMARK   32  A    between atoms: _74  and  _75
REMARK   33  A    between atoms: _74  and  _77
REMARK   34  A    between atoms: _77  and  _78
REMARK   35  A    between atoms: _83  and  _85
REMARK   36  A    between atoms: _85  and  _86
REMARK   37  A    between atoms: _85  and  _88
REMARK   38  A    between atoms: _88  and  _89
REMARK   39  A    between atoms: _94  and  _96
REMARK   40  A    between atoms: _96  and  _97
REMARK   41  A    between atoms: _99  and  _101
REMARK   42  A    between atoms: _101  and  _102
REMARK   43  A    between atoms: _101  and  _104
REMARK   44  A    between atoms: _104  and  _105
REMARK   45  A    between atoms: _105  and  _106
REMARK   46  A    between atoms: _108  and  _110
REMARK   47  A    between atoms: _110  and  _111
REMARK   48  A    between atoms: _110  and  _113
REMARK   49  A    between atoms: _113  and  _114
REMARK   50  A    between atoms: _117  and  _119
REMARK   51  A    between atoms: _119  and  _120
REMARK   52  A    between atoms: _119  and  _122
REMARK   53  A    between atoms: _122  and  _123
REMARK   54  A    between atoms: _123  and  _124
REMARK   55  A    between atoms: _127  and  _129
REMARK   56  A    between atoms: _129  and  _130
REMARK   57  A    between atoms: _129  and  _132
REMARK   58  A    between atoms: _132  and  _133
REMARK   59  A    between atoms: _133  and  _134
REMARK   60  A    between atoms: _136  and  _138
REMARK   61  A    between atoms: _138  and  _139
REMARK   62  A    between atoms: _138  and  _141
REMARK   63  A    between atoms: _141  and  _142
REMARK   64  A    between atoms: _152  and  _154
REMARK   65  A    between atoms: _154  and  _155
REMARK   66  A    between atoms: _154  and  _157
REMARK   67  A    between atoms: _157  and  _158
REMARK   68  A    between atoms: _160  and  _162
REMARK   69  A    between atoms: _162  and  _163
REMARK   70  A    between atoms: _162  and  _165
REMARK   71  A    between atoms: _165  and  _166
REMARK   72  A    between atoms: _169  and  _171
REMARK   73  A    between atoms: _171  and  _172
REMARK   74  A    between atoms: _171  and  _174
REMARK   75  A    between atoms: _174  and  _175
REMARK   76  A    between atoms: _175  and  _176
REMARK   77  A    between atoms: _176  and  _177
REMARK   78  A    between atoms: _177  and  _178
REMARK   79  A    between atoms: _182  and  _184
REMARK   80  A    between atoms: _184  and  _185
REMARK   81  A    between atoms: _184  and  _187
REMARK   82  A    between atoms: _187  and  _188
REMARK   83  A    between atoms: _193  and  _194
REMARK   84  A    between atoms: _196  and  _198
REMARK   85  A    between atoms: _198  and  _199
REMARK   86  A    between atoms: _198  and  _201
REMARK   87  A    between atoms: _204  and  _206
REMARK   88  A    between atoms: _206  and  _207
REMARK   89  A    between atoms: _206  and  _209
REMARK   90  A    between atoms: _209  and  _210
REMARK   91  A    between atoms: _215  and  _216
REMARK   92  A    between atoms: _218  and  _220
REMARK   93  A    between atoms: _220  and  _221
REMARK   94  A    between atoms: _220  and  _223
REMARK   95  A    between atoms: _223  and  _224
REMARK   96  A    between atoms: _234  and  _236
REMARK   97  A    between atoms: _236  and  _237
REMARK   98  A    between atoms: _236  and  _239
REMARK   99  A    between atoms: _239  and  _240
REMARK  100  A    between atoms: _243  and  _245
REMARK  101  A    between atoms: _245  and  _246
REMARK  102  A    between atoms: _245  and  _248
REMARK  103  A    between atoms: _248  and  _249
REMARK  104  A    between atoms: _254  and  _255
REMARK  105  A    between atoms: _257  and  _259
REMARK  106  A    between atoms: _259  and  _260
REMARK  107  A    between atoms: _259  and  _262
REMARK  108  A    between atoms: _262  and  _263
REMARK  109  A    between atoms: _268  and  _269
REMARK  110  A    between atoms: _271  and  _273
REMARK  111  A    between atoms: _273  and  _274
REMARK  112  A    between atoms: _277  and  _279
REMARK  113  A    between atoms: _279  and  _280
REMARK  114  A    between atoms: _279  and  _282
REMARK  115  A    between atoms: _282  and  _283
REMARK  116  A    between atoms: _293  and  _295
REMARK  117  A    between atoms: _295  and  _296
REMARK  118  A    between atoms: _295  and  _298
REMARK  119  A    between atoms: _298  and  _299
REMARK  120  A    between atoms: _299  and  _300
REMARK  121  A    between atoms: _300  and  _301
REMARK  122  A    between atoms: _301  and  _302
REMARK  123  A    between atoms: _306  and  _308
REMARK  124  A    between atoms: _308  and  _309
REMARK  125  A    between atoms: _308  and  _311
REMARK  126  A    between atoms: _311  and  _312
REMARK  127  A    between atoms: _322  and  _324
REMARK  128  A    between atoms: _324  and  _325
REMARK  129  A    between atoms: _324  and  _327
REMARK  130  A    between atoms: _327  and  _328
REMARK  131  A    between atoms: _331  and  _333
REMARK  132  A    between atoms: _333  and  _334
REMARK  133  A    between atoms: _333  and  _336
REMARK  134  A    between atoms: _336  and  _337
REMARK  135  A    between atoms: _340  and  _342
REMARK  136  A    between atoms: _342  and  _343
REMARK  137  A    between atoms: _345  and  _347
REMARK  138  A    between atoms: _347  and  _348
REMARK  139  A    between atoms: _347  and  _350
REMARK  140  A    between atoms: _350  and  _351
REMARK  141  A    between atoms: _361  and  _363
REMARK  142  A    between atoms: _363  and  _364
REMARK  143  A    between atoms: _366  and  _368
REMARK  144  A    between atoms: _368  and  _369
REMARK  145  A    between atoms: _368  and  _371
REMARK  146  A    between atoms: _371  and  _372
REMARK  147  A    between atoms: _375  and  _377
REMARK  148  A    between atoms: _377  and  _378
REMARK  149  A    between atoms: _377  and  _380
REMARK  150  A    between atoms: _380  and  _381
REMARK  151  A    between atoms: _386  and  _388
REMARK  152  A    between atoms: _388  and  _389
REMARK  153  A    between atoms: _388  and  _391
REMARK  154  A    between atoms: _391  and  _392
REMARK  155  A    between atoms: _397  and  _399
REMARK  156  A    between atoms: _399  and  _400
REMARK  157  A    between atoms: _399  and  _402
REMARK  158  A    between atoms: _402  and  _403
REMARK                            x       y       z     vdW  Elec       q    Type
REMARK                         _______ _______ _______ _____ _____    ______ ____
ROOT
ATOM      1  CA  ALA A   1      21.309   2.868  49.387  0.00  0.00    +0.133 C 
ATOM      2  CB  ALA A   1      22.387   3.188  48.382  0.00  0.00    +0.027 C 
ENDROOT
BRANCH   1   3
ATOM      3  N   ALA A   1      21.070   1.418  49.478  0.00  0.00    -0.239 NA
ATOM      4  H   ALA A   1      20.872   0.893  48.603  0.00  0.00    +0.142 HD
ENDBRANCH   1   3
BRANCH   1   5
ATOM      5  C   ALA A   1      20.016   3.576  49.010  0.00  0.00    +0.224 C 
ATOM      6  O   ALA A   1      19.447   3.299  47.946  0.00  0.00    -0.287 OA
ENDBRANCH   1   5
TORSDOF 2
REMARK  Name = ../refined-set-2016/2epn/2epn_pocket.pdb
REMARK  158 active torsions:
REMARK  status: ('A' for Active; 'I' for Inactive)
REMARK    1  A    between atoms: _1  and  _3
REMARK    2  A    between atoms: _3  and  _4
REMARK    3  A    between atoms: _3  and  _6
REMARK    4  A    between atoms: _6  and  _7
REMARK    5  A    between atoms: _7  and  _8
REMARK    6  A    between atoms: _10  and  _12
REMARK    7  A    between atoms: _12  and  _13
REMARK    8  A    between atoms: _12  and  _15
REMARK    9  A    between atoms: _15  and  _16
REMARK   10  A    between atoms: _19  and  _21
REMARK   11  A    between atoms: _21  and  _22
REMARK   12  A    between atoms: _21  and  _24
REMARK   13  A    between atoms: _24  and  _25
REMARK   14  A    between atoms: _25  and  _26
REMARK   15  A    between atoms: _26  and  _27
REMARK   16  A    between atoms: _36  and  _38
REMARK   17  A    between atoms: _38  and  _39
REMARK   18  A    between atoms: _38  and  _41
REMARK   19  A    between atoms: _41  and  _42
REMARK   20  A    between atoms: _47  and  _48
REMARK   21  A    between atoms: _50  and  _52
REMARK   22  A    between atoms: _52  and  _53
REMARK   23  A    between atoms: _52  and  _55
REMARK   24  A    between atoms: _55  and  _56
REMARK   25  A    between atoms: _56  and  _57
REMARK   26  A    between atoms: _60  and  _62
REMARK   27  A    between atoms: _62  and  _63
REMARK   28  A    between atoms: _62  and  _65
REMARK   29  A    between atoms: _65  and  _66
REMARK   30  A    between atoms: _66  and  _67
REMARK   31  A    between atoms: _72  and  _74
REMARK   32  A    between atoms: _74  and  _75
REMARK   33  A    between atoms: _74  and  _77
REMARK   34  A    between atoms: _77  and  _78
REMARK   35  A    between atoms: _83  and  _85
REMARK   36  A    between atoms: _85  and  _86
REMARK   37  A    between atoms: _85  and  _88
REMARK   38  A    between atoms: _88  and  _89
REMARK   39  A    between atoms: _94  and  _96
REMARK   40  A    between atoms: _96  and  _97
REMARK   41  A    between atoms: _99  and  _101
REMARK   42  A    between atoms: _101  and  _102
REMARK   43  A    between atoms: _101  and  _104
REMARK   44  A    between atoms: _104  and  _105
REMARK   45  A    between atoms: _105  and  _106
REMARK   46  A    between atoms: _108  and  _110
REMARK   47  A    between atoms: _110  and  _111
REMARK   48  A    between atoms: _110  and  _113
REMARK   49  A    between atoms: _113  and  _114
REMARK   50  A    between atoms: _117  and  _119
REMARK   51  A    between atoms: _119  and  _120
REMARK   52  A    between atoms: _119  and  _122
REMARK   53  A    between atoms: _122  and  _123
REMARK   54  A    between atoms: _123  and  _124
REMARK   55  A    between atoms: _127  and  _129
REMARK   56  A    between atoms: _129  and  _130
REMARK   57  A    between atoms: _129  and  _132
REMARK   58  A    between atoms: _132  and  _133
REMARK   59  A    between atoms: _133  and  _134
REMARK   60  A    between atoms: _136  and  _138
REMARK   61  A    between atoms: _138  and  _139
REMARK   62  A    between atoms: _138  and  _141
REMARK   63  A    between atoms: _141  and  _142
REMARK   64  A    between atoms: _152  and  _154
REMARK   65  A    between atoms: _154  and  _155
REMARK   66  A    between atoms: _154  and  _157
REMARK   67  A    between atoms: _157  and  _158
REMARK   68  A    between atoms: _160  and  _162
REMARK   69  A    between atoms: _162  and  _163
REMARK   70  A    between atoms: _162  and  _165
REMARK   71  A    between atoms: _165  and  _166
REMARK   72  A    between atoms: _169  and  _171
REMARK   73  A    between atoms: _171  and  _172
REMARK   74  A    between atoms: _171  and  _174
REMARK   75  A    between atoms: _174  and  _175
REMARK   76  A    between atoms: _175  and  _176
REMARK   77  A    between atoms: _176  and  _177
REMARK   78  A    between atoms: _177  and  _178
REMARK   79  A    between atoms: _182  and  _184
REMARK   80  A    between atoms: _184  and  _185
REMARK   81  A    between atoms: _184  and  _187
REMARK   82  A    between atoms: _187  and  _188
REMARK   83  A    between atoms: _193  and  _194
REMARK   84  A    between atoms: _196  and  _198
REMARK   85  A    between atoms: _198  and  _199
REMARK   86  A    between atoms: _198  and  _201
REMARK   87  A    between atoms: _204  and  _206
REMARK   88  A    between atoms: _206  and  _207
REMARK   89  A    between atoms: _206  and  _209
REMARK   90  A    between atoms: _209  and  _210
REMARK   91  A    between atoms: _215  and  _216
REMARK   92  A    between atoms: _218  and  _220
REMARK   93  A    between atoms: _220  and  _221
REMARK   94  A    between atoms: _220  and  _223
REMARK   95  A    between atoms: _223  and  _224
REMARK   96  A    between atoms: _234  and  _236
REMARK   97  A    between atoms: _236  and  _237
REMARK   98  A    between atoms: _236  and  _239
REMARK   99  A    between atoms: _239  and  _240
REMARK  100  A    between atoms: _243  and  _245
REMARK  101  A    between atoms: _245  and  _246
REMARK  102  A    between atoms: _245  and  _248
REMARK  103  A    between atoms: _248  and  _249
REMARK  104  A    between atoms: _254  and  _255
REMARK  105  A    between atoms: _257  and  _259
REMARK  106  A    between atoms: _259  and  _260
REMARK  107  A    between atoms: _259  and  _262
REMARK  108  A    between atoms: _262  and  _263
REMARK  109  A    between atoms: _268  and  _269
REMARK  110  A    between atoms: _271  and  _273
REMARK  111  A    between atoms: _273  and  _274
REMARK  112  A    between atoms: _277  and  _279
REMARK  113  A    between atoms: _279  and  _280
REMARK  114  A    between atoms: _279  and  _282
REMARK  115  A    between atoms: _282  and  _283
REMARK  116  A    between atoms: _293  and  _295
REMARK  117  A    between atoms: _295  and  _296
REMARK  118  A    between atoms: _295  and  _298
REMARK  119  A    between atoms: _298  and  _299
REMARK  120  A    between atoms: _299  and  _300
REMARK  121  A    between atoms: _300  and  _301
REMARK  122  A    between atoms: _301  and  _302
REMARK  123  A    between atoms: _306  and  _308
REMARK  124  A    between atoms: _308  and  _309
REMARK  125  A    between atoms: _308  and  _311
REMARK  126  A    between atoms: _311  and  _312
REMARK  127  A    between atoms: _322  and  _324
REMARK  128  A    between atoms: _324  and  _325
REMARK  129  A    between atoms: _324  and  _327
REMARK  130  A    between atoms: _327  and  _328
REMARK  131  A    between atoms: _331  and  _333
REMARK  132  A    between atoms: _333  and  _334
REMARK  133  A    between atoms: _333  and  _336
REMARK  134  A    between atoms: _336  and  _337
REMARK  135  A    between atoms: _340  and  _342
REMARK  136  A    between atoms: _342  and  _343
REMARK  137  A    between atoms: _345  and  _347
REMARK  138  A    between atoms: _347  and  _348
REMARK  139  A    between atoms: _347  and  _350
REMARK  140  A    between atoms: _350  and  _351
REMARK  141  A    between atoms: _361  and  _363
REMARK  142  A    between atoms: _363  and  _364
REMARK  143  A    between atoms: _366  and  _368
REMARK  144  A    between atoms: _368  and  _369
REMARK  145  A    between atoms: _368  and  _371
REMARK  146  A    between atoms: _371  and  _372
REMARK  147  A    between atoms: _375  and  _377
REMARK  148  A    between atoms: _377  and  _378
REMARK  149  A    between atoms: _377  and  _380
REMARK  150  A    between atoms: _380  and  _381
REMARK  151  A    between atoms: _386  and  _388
REMARK  152  A    between atoms: _388  and  _389
REMARK  153  A    between atoms: _388  and  _391
REMARK  154  A    between atoms: _391  and  _392
REMARK  155  A    between atoms: _397  and  _399
REMARK  156  A    between atoms: _399  and  _400
REMARK  157  A    between atoms: _399  and  _402
REMARK  158  A    between atoms: _402  and  _403
REMARK                            x       y       z     vdW  Elec       q    Type
REMARK                         _______ _______ _______ _____ _____    ______ ____
ROOT
ATOM      1  CA  LYS A   2      19.960  16.870  46.181  0.00  0.00    +0.149 C 
ENDROOT
BRANCH   1   4
ATOM      2  C   TRP A   1      18.038  15.443  46.715  0.00  0.00    +0.239 C 
ATOM      3  O   TRP A   1      17.332  16.418  47.023  0.00  0.00    -0.274 OA
ATOM      4  N   LYS A   2      19.320  15.571  46.358  0.00  0.00    -0.297 N 
ATOM      5  H   LYS A   2      19.883  14.711  46.200  0.00  0.00    +0.150 HD
BRANCH   2   6
ATOM      6  CA  TRP A   1      17.503  14.015  46.751  0.00  0.00    +0.149 C 
BRANCH   6   7
ATOM      7  N   TRP A   1      17.573  13.436  48.073  0.00  0.00    -0.238 NA
ATOM      8  H   TRP A   1      16.683  13.223  48.568  0.00  0.00    +0.142 HD
ENDBRANCH   6   7
BRANCH   6   9
ATOM      9  CB  TRP A   1      16.059  13.951  46.241  0.00  0.00    +0.054 C 
BRANCH   9  10
ATOM     10  CG  TRP A   1      15.690  12.612  45.670  0.00  0.00    -0.002 A 
ATOM     11  CD1 TRP A   1      15.382  11.462  46.339  0.00  0.00    +0.068 A 
ATOM     12  NE1 TRP A   1      15.122  10.449  45.438  0.00  0.00    -0.352 N 
ATOM     13  HE1 TRP A   1      14.866   9.472  45.684  0.00  0.00    +0.166 HD
ATOM     14  CE2 TRP A   1      15.257  10.942  44.168  0.00  0.00    +0.056 A 
ATOM     15  CZ2 TRP A   1      15.104  10.313  42.931  0.00  0.00    +0.017 A 
ATOM     16  CH2 TRP A   1      15.316  11.070  41.814  0.00  0.00    +0.001 A 
ATOM     17  CZ3 TRP A   1      15.681  12.424  41.904  0.00  0.00    +0.000 A 
ATOM     18  CE3 TRP A   1      15.828  13.040  43.114  0.00  0.00    +0.001 A 
ATOM     19  CD2 TRP A   1      15.615  12.297  44.279  0.00  0.00    +0.013 A 
ENDBRANCH   9  10
ENDBRANCH   6   9
ENDBRANCH   2   6
ENDBRANCH   1   4
BRANCH   1  20
ATOM     20  C   LYS A   2      20.801  16.956  44.897  0.00  0.00    +0.241 C 
ATOM     21  O   LYS A   2      21.734  17.748  44.833  0.00  0.00    -0.273 OA
ATOM     22  N   TRP A   3      20.440  16.170  43.887  0.00  0.00    -0.297 N 
ATOM     23  H   TRP A   3      19.586  15.586  43.995  0.00  0.00    +0.150 HD
BRANCH  22  24
ATOM     24  CA  TRP A   3      21.186  16.086  42.629  0.00  0.00    +0.153 C 
BRANCH  24  25
ATOM     25  C   TRP A   3      20.411  16.555  41.403  0.00  0.00    +0.241 C 
ATOM     26  N   ILE A   4      19.392  17.418  41.583  0.00  0.00    -0.298 N 
ATOM     27  H   ILE A   4      19.210  17.784  42.539  0.00  0.00    +0.150 HD
ATOM     28  O   TRP A   3      20.767  16.174  40.300  0.00  0.00    -0.273 OA
BRANCH  26  29
ATOM     29  CA  ILE A   4      18.529  17.862  40.481  0.00  0.00    +0.137 C 
BRANCH  29  30
ATOM     30  C   ILE A   4      18.573  19.379  40.306  0.00  0.00    +0.227 C 
ATOM     31  O   ILE A   4      17.590  20.022  39.892  0.00  0.00    -0.286 OA
ENDBRANCH  29  30
BRANCH  29  32
ATOM     32  CB  ILE A   4      17.072  17.298  40.616  0.00  0.00    +0.026 C 
ATOM     33  CG2 ILE A   4      17.129  15.776  40.511  0.00  0.00    +0.002 C 
BRANCH  32  34
ATOM     34  CG1 ILE A   4      16.430  17.743  41.913  0.00  0.00    +0.002 C 
ATOM     35  CD1 ILE A   4      14.963  17.396  41.996  0.00  0.00    +0.000 C 
ENDBRANCH  32  34
ENDBRANCH  29  32
ENDBRANCH  26  29
ENDBRANCH  24  25
BRANCH  24  36
ATOM     36  CB  TRP A   3      21.672  14.650  42.424  0.00  0.00    +0.057 C 
BRANCH  36  37
ATOM     37  CG  TRP A   3      20.629  13.590  42.368  0.00  0.00    -0.002 A 
ATOM     38  CD2 TRP A   3      20.259  12.708  43.441  0.00  0.00    +0.013 A 
ATOM     39  CE3 TRP A   3      20.646  12.593  44.777  0.00  0.00    +0.001 A 
ATOM     40  CZ3 TRP A   3      20.052  11.599  45.577  0.00  0.00    +0.000 A 
ATOM     41  CH2 TRP A   3      19.097  10.731  45.039  0.00  0.00    +0.001 A 
ATOM     42  CZ2 TRP A   3      18.701  10.822  43.735  0.00  0.00    +0.017 A 
ATOM     43  CE2 TRP A   3      19.276  11.820  42.937  0.00  0.00    +0.056 A 
ATOM     44  NE1 TRP A   3      19.080  12.129  41.615  0.00  0.00    -0.352 N 
ATOM     45  HE1 TRP A   3      18.417  11.647  40.975  0.00  0.00    +0.166 HD
ATOM     46  CD1 TRP A   3      19.909  13.188  41.269  0.00  0.00    +0.068 A 
ENDBRANCH  36  37
ENDBRANCH  24  36
ENDBRANCH  22  24
ENDBRANCH   1  20
BRANCH   1  47
ATOM     47  CB  LYS A   2      20.836  17.241  47.388  0.00  0.00    +0.029 C 
BRANCH  47  48
ATOM     48  CG  LYS A   2      21.847  16.204  47.777  0.00  0.00    +0.000 C 
BRANCH  48  49
ATOM     49  CD  LYS A   2      22.900  16.692  48.740  0.00  0.00    -0.024 C 
BRANCH  49  50
ATOM     50  CE  LYS A   2      23.927  17.563  48.098  0.00  0.00    -0.086 C 
BRANCH  50  51
ATOM     51  NZ  LYS A   2      24.721  16.840  47.039  0.00  0.00    +0.380 N 
ATOM     52  HZ1 LYS A   2      25.212  16.030  47.468  0.00  0.00    -0.089 HD
ATOM     53  HZ2 LYS A   2      25.419  17.491  46.626  0.00  0.00    -0.089 HD
ATOM     54  HZ3 LYS A   2      24.078  16.503  46.295  0.00  0.00    -0.089 HD
ENDBRANCH  50  51
ENDBRANCH  49  50
ENDBRANCH  48  49
ENDBRANCH  47  48
ENDBRANCH   1  47
TORSDOF 19
REMARK  Name = ../refined-set-2016/2epn/2epn_pocket.pdb
REMARK  158 active torsions:
REMARK  status: ('A' for Active; 'I' for Inactive)
REMARK    1  A    between atoms: _1  and  _3
REMARK    2  A    between atoms: _3  and  _4
REMARK    3  A    between atoms: _3  and  _6
REMARK    4  A    between atoms: _6  and  _7
REMARK    5  A    between atoms: _7  and  _8
REMARK    6  A    between atoms: _10  and  _12
REMARK    7  A    between atoms: _12  and  _13
REMARK    8  A    between atoms: _12  and  _15
REMARK    9  A    between atoms: _15  and  _16
REMARK   10  A    between atoms: _19  and  _21
REMARK   11  A    between atoms: _21  and  _22
REMARK   12  A    between atoms: _21  and  _24
REMARK   13  A    between atoms: _24  and  _25
REMARK   14  A    between atoms: _25  and  _26
REMARK   15  A    between atoms: _26  and  _27
REMARK   16  A    between atoms: _36  and  _38
REMARK   17  A    between atoms: _38  and  _39
REMARK   18  A    between atoms: _38  and  _41
REMARK   19  A    between atoms: _41  and  _42
REMARK   20  A    between atoms: _47  and  _48
REMARK   21  A    between atoms: _50  and  _52
REMARK   22  A    between atoms: _52  and  _53
REMARK   23  A    between atoms: _52  and  _55
REMARK   24  A    between atoms: _55  and  _56
REMARK   25  A    between atoms: _56  and  _57
REMARK   26  A    between atoms: _60  and  _62
REMARK   27  A    between atoms: _62  and  _63
REMARK   28  A    between atoms: _62  and  _65
REMARK   29  A    between atoms: _65  and  _66
REMARK   30  A    between atoms: _66  and  _67
REMARK   31  A    between atoms: _72  and  _74
REMARK   32  A    between atoms: _74  and  _75
REMARK   33  A    between atoms: _74  and  _77
REMARK   34  A    between atoms: _77  and  _78
REMARK   35  A    between atoms: _83  and  _85
REMARK   36  A    between atoms: _85  and  _86
REMARK   37  A    between atoms: _85  and  _88
REMARK   38  A    between atoms: _88  and  _89
REMARK   39  A    between atoms: _94  and  _96
REMARK   40  A    between atoms: _96  and  _97
REMARK   41  A    between atoms: _99  and  _101
REMARK   42  A    between atoms: _101  and  _102
REMARK   43  A    between atoms: _101  and  _104
REMARK   44  A    between atoms: _104  and  _105
REMARK   45  A    between atoms: _105  and  _106
REMARK   46  A    between atoms: _108  and  _110
REMARK   47  A    between atoms: _110  and  _111
REMARK   48  A    between atoms: _110  and  _113
REMARK   49  A    between atoms: _113  and  _114
REMARK   50  A    between atoms: _117  and  _119
REMARK   51  A    between atoms: _119  and  _120
REMARK   52  A    between atoms: _119  and  _122
REMARK   53  A    between atoms: _122  and  _123
REMARK   54  A    between atoms: _123  and  _124
REMARK   55  A    between atoms: _127  and  _129
REMARK   56  A    between atoms: _129  and  _130
REMARK   57  A    between atoms: _129  and  _132
REMARK   58  A    between atoms: _132  and  _133
REMARK   59  A    between atoms: _133  and  _134
REMARK   60  A    between atoms: _136  and  _138
REMARK   61  A    between atoms: _138  and  _139
REMARK   62  A    between atoms: _138  and  _141
REMARK   63  A    between atoms: _141  and  _142
REMARK   64  A    between atoms: _152  and  _154
REMARK   65  A    between atoms: _154  and  _155
REMARK   66  A    between atoms: _154  and  _157
REMARK   67  A    between atoms: _157  and  _158
REMARK   68  A    between atoms: _160  and  _162
REMARK   69  A    between atoms: _162  and  _163
REMARK   70  A    between atoms: _162  and  _165
REMARK   71  A    between atoms: _165  and  _166
REMARK   72  A    between atoms: _169  and  _171
REMARK   73  A    between atoms: _171  and  _172
REMARK   74  A    between atoms: _171  and  _174
REMARK   75  A    between atoms: _174  and  _175
REMARK   76  A    between atoms: _175  and  _176
REMARK   77  A    between atoms: _176  and  _177
REMARK   78  A    between atoms: _177  and  _178
REMARK   79  A    between atoms: _182  and  _184
REMARK   80  A    between atoms: _184  and  _185
REMARK   81  A    between atoms: _184  and  _187
REMARK   82  A    between atoms: _187  and  _188
REMARK   83  A    between atoms: _193  and  _194
REMARK   84  A    between atoms: _196  and  _198
REMARK   85  A    between atoms: _198  and  _199
REMARK   86  A    between atoms: _198  and  _201
REMARK   87  A    between atoms: _204  and  _206
REMARK   88  A    between atoms: _206  and  _207
REMARK   89  A    between atoms: _206  and  _209
REMARK   90  A    between atoms: _209  and  _210
REMARK   91  A    between atoms: _215  and  _216
REMARK   92  A    between atoms: _218  and  _220
REMARK   93  A    between atoms: _220  and  _221
REMARK   94  A    between atoms: _220  and  _223
REMARK   95  A    between atoms: _223  and  _224
REMARK   96  A    between atoms: _234  and  _236
REMARK   97  A    between atoms: _236  and  _237
REMARK   98  A    between atoms: _236  and  _239
REMARK   99  A    between atoms: _239  and  _240
REMARK  100  A    between atoms: _243  and  _245
REMARK  101  A    between atoms: _245  and  _246
REMARK  102  A    between atoms: _245  and  _248
REMARK  103  A    between atoms: _248  and  _249
REMARK  104  A    between atoms: _254  and  _255
REMARK  105  A    between atoms: _257  and  _259
REMARK  106  A    between atoms: _259  and  _260
REMARK  107  A    between atoms: _259  and  _262
REMARK  108  A    between atoms: _262  and  _263
REMARK  109  A    between atoms: _268  and  _269
REMARK  110  A    between atoms: _271  and  _273
REMARK  111  A    between atoms: _273  and  _274
REMARK  112  A    between atoms: _277  and  _279
REMARK  113  A    between atoms: _279  and  _280
REMARK  114  A    between atoms: _279  and  _282
REMARK  115  A    between atoms: _282  and  _283
REMARK  116  A    between atoms: _293  and  _295
REMARK  117  A    between atoms: _295  and  _296
REMARK  118  A    between atoms: _295  and  _298
REMARK  119  A    between atoms: _298  and  _299
REMARK  120  A    between atoms: _299  and  _300
REMARK  121  A    between atoms: _300  and  _301
REMARK  122  A    between atoms: _301  and  _302
REMARK  123  A    between atoms: _306  and  _308
REMARK  124  A    between atoms: _308  and  _309
REMARK  125  A    between atoms: _308  and  _311
REMARK  126  A    between atoms: _311  and  _312
REMARK  127  A    between atoms: _322  and  _324
REMARK  128  A    between atoms: _324  and  _325
REMARK  129  A    between atoms: _324  and  _327
REMARK  130  A    between atoms: _327  and  _328
REMARK  131  A    between atoms: _331  and  _333
REMARK  132  A    between atoms: _333  and  _334
REMARK  133  A    between atoms: _333  and  _336
REMARK  134  A    between atoms: _336  and  _337
REMARK  135  A    between atoms: _340  and  _342
REMARK  136  A    between atoms: _342  and  _343
REMARK  137  A    between atoms: _345  and  _347
REMARK  138  A    between atoms: _347  and  _348
REMARK  139  A    between atoms: _347  and  _350
REMARK  140  A    between atoms: _350  and  _351
REMARK  141  A    between atoms: _361  and  _363
REMARK  142  A    between atoms: _363  and  _364
REMARK  143  A    between atoms: _366  and  _368
REMARK  144  A    between atoms: _368  and  _369
REMARK  145  A    between atoms: _368  and  _371
REMARK  146  A    between atoms: _371  and  _372
REMARK  147  A    between atoms: _375  and  _377
REMARK  148  A    between atoms: _377  and  _378
REMARK  149  A    between atoms: _377  and  _380
REMARK  150  A    between atoms: _380  and  _381
REMARK  151  A    between atoms: _386  and  _388
REMARK  152  A    between atoms: _388  and  _389
REMARK  153  A    between atoms: _388  and  _391
REMARK  154  A    between atoms: _391  and  _392
REMARK  155  A    between atoms: _397  and  _399
REMARK  156  A    between atoms: _399  and  _400
REMARK  157  A    between atoms: _399  and  _402
REMARK  158  A    between atoms: _402  and  _403
REMARK                            x       y       z     vdW  Elec       q    Type
REMARK                         _______ _______ _______ _____ _____    ______ ____
ROOT
ATOM      1  CA  TRP A   3      24.582  12.757  45.047  0.00  0.00    +0.153 C 
ENDROOT
BRANCH   1   4
ATOM      2  C   GLY A   2      24.218  13.067  47.438  0.00  0.00    +0.243 C 
ATOM      3  O   GLY A   2      25.145  13.911  47.527  0.00  0.00    -0.273 OA
ATOM      4  N   TRP A   3      23.888  12.445  46.308  0.00  0.00    -0.297 N 
ATOM      5  H   TRP A   3      23.132  11.731  46.316  0.00  0.00    +0.150 HD
BRANCH   2   6
ATOM      6  CA  GLY A   2      23.357  12.701  48.630  0.00  0.00    +0.176 C 
BRANCH   6   8
ATOM      7  C   THR A   1      22.854  10.335  48.863  0.00  0.00    +0.241 C 
ATOM      8  N   GLY A   2      23.685  11.346  49.027  0.00  0.00    -0.295 N 
ATOM      9  H   GLY A   2      24.613  11.164  49.459  0.00  0.00    +0.150 HD
ATOM     10  O   THR A   1      21.716  10.486  48.377  0.00  0.00    -0.274 OA
BRANCH   7  11
ATOM     11  CA  THR A   1      23.332   8.945  49.308  0.00  0.00    +0.172 C 
BRANCH  11  12
ATOM     12  CB  THR A   1      23.489   8.084  48.082  0.00  0.00    +0.135 C 
ATOM     13  CG2 THR A   1      24.152   6.800  48.409  0.00  0.00    +0.034 C 
BRANCH  12  14
ATOM     14  OG1 THR A   1      22.190   7.770  47.558  0.00  0.00    -0.383 OA
ATOM     15  HG1 THR A   1      22.289   7.204  46.752  0.00  0.00    +0.210 HD
ENDBRANCH  12  14
ENDBRANCH  11  12
BRANCH  11  16
ATOM     16  N   THR A   1      22.423   8.320  50.271  0.00  0.00    -0.236 NA
ATOM     17  H   THR A   1      21.555   7.873  49.913  0.00  0.00    +0.142 HD
ENDBRANCH  11  16
ENDBRANCH   7  11
ENDBRANCH   6   8
ENDBRANCH   2   6
ENDBRANCH   1   4
BRANCH   1  18
ATOM     18  C   TRP A   3      24.487  14.247  44.663  0.00  0.00    +0.241 C 
ATOM     19  O   TRP A   3      23.624  14.974  45.155  0.00  0.00    -0.273 OA
ATOM     20  N   GLY A   4      25.328  14.664  43.706  0.00  0.00    -0.295 N 
ATOM     21  H   GLY A   4      25.940  13.963  43.242  0.00  0.00    +0.150 HD
BRANCH  20  22
ATOM     22  CA  GLY A   4      25.422  16.057  43.287  0.00  0.00    +0.176 C 
BRANCH  22  23
ATOM     23  C   GLY A   4      25.409  16.280  41.780  0.00  0.00    +0.243 C 
ATOM     24  O   GLY A   4      25.913  17.285  41.313  0.00  0.00    -0.273 OA
ATOM     25  N   ASP A   5      24.798  15.342  41.046  0.00  0.00    -0.296 N 
ATOM     26  H   ASP A   5      24.240  14.624  41.550  0.00  0.00    +0.150 HD
BRANCH  25  27
ATOM     27  CA  ASP A   5      24.858  15.251  39.575  0.00  0.00    +0.160 C 
BRANCH  27  28
ATOM     28  C   ASP A   5      25.053  16.559  38.802  0.00  0.00    +0.241 C 
ATOM     29  O   ASP A   5      24.278  17.527  38.948  0.00  0.00    -0.273 OA
ATOM     30  N   ASN A   6      26.060  16.555  37.931  0.00  0.00    -0.298 N 
ATOM     31  H   ASN A   6      26.778  15.805  37.987  0.00  0.00    +0.150 HD
BRANCH  30  32
ATOM     32  CA  ASN A   6      26.179  17.584  36.896  0.00  0.00    +0.146 C 
BRANCH  32  33
ATOM     33  C   ASN A   6      26.498  18.985  37.441  0.00  0.00    +0.227 C 
ATOM     34  O   ASN A   6      25.924  19.979  36.994  0.00  0.00    -0.286 OA
ENDBRANCH  32  33
BRANCH  32  35
ATOM     35  CB  ASN A   6      24.911  17.550  36.010  0.00  0.00    +0.112 C 
BRANCH  35  36
ATOM     36  CG  ASN A   6      25.030  18.317  34.695  0.00  0.00    +0.222 C 
ATOM     37  OD1 ASN A   6      24.204  19.173  34.431  0.00  0.00    -0.275 OA
ATOM     38  ND2 ASN A   6      26.022  17.984  33.841  0.00  0.00    -0.329 N 
ATOM     39 HD21 ASN A   6      26.708  17.248  34.103  0.00  0.00    +0.145 HD
ATOM     40 HD22 ASN A   6      26.100  18.464  32.922  0.00  0.00    +0.145 HD
ENDBRANCH  35  36
ENDBRANCH  32  35
ENDBRANCH  30  32
ENDBRANCH  27  28
BRANCH  27  41
ATOM     41  CB  ASP A   5      23.581  14.617  38.985  0.00  0.00    +0.143 C 
BRANCH  41  42
ATOM     42  CG  ASP A   5      23.316  13.210  39.469  0.00  0.00    +0.367 C 
ATOM     43  OD2 ASP A   5      23.998  12.723  40.393  0.00  0.00    -0.246 OA
ATOM     44  OD1 ASP A   5      22.377  12.602  38.911  0.00  0.00    -0.246 OA
ENDBRANCH  41  42
ENDBRANCH  27  41
ENDBRANCH  25  27
ENDBRANCH  22  23
ENDBRANCH  20  22
ENDBRANCH   1  18
BRANCH   1  45
ATOM     45  CB  TRP A   3      24.072  11.893  43.922  0.00  0.00    +0.057 C 
BRANCH  45  46
ATOM     46  CG  TRP A   3      24.073  10.448  44.217  0.00  0.00    -0.002 A 
ATOM     47  CD1 TRP A   3      23.000   9.665  44.554  0.00  0.00    +0.068 A 
ATOM     48  NE1 TRP A   3      23.412   8.371  44.734  0.00  0.00    -0.352 N 
ATOM     49  HE1 TRP A   3      22.799   7.578  45.013  0.00  0.00    +0.166 HD
ATOM     50  CE2 TRP A   3      24.761   8.283  44.489  0.00  0.00    +0.056 A 
ATOM     51  CZ2 TRP A   3      25.610   7.186  44.526  0.00  0.00    +0.017 A 
ATOM     52  CH2 TRP A   3      26.940   7.401  44.229  0.00  0.00    +0.001 A 
ATOM     53  CZ3 TRP A   3      27.411   8.663  43.942  0.00  0.00    +0.000 A 
ATOM     54  CE3 TRP A   3      26.576   9.756  43.895  0.00  0.00    +0.001 A 
ATOM     55  CD2 TRP A   3      25.216   9.570  44.177  0.00  0.00    +0.013 A 
ENDBRANCH  45  46
ENDBRANCH   1  45
TORSDOF 20
REMARK  Name = ../refined-set-2016/2epn/2epn_pocket.pdb
REMARK  158 active torsions:
REMARK  status: ('A' for Active; 'I' for Inactive)
REMARK    1  A    between atoms: _1  and  _3
REMARK    2  A    between atoms: _3  and  _4
REMARK    3  A    between atoms: _3  and  _6
REMARK    4  A    between atoms: _6  and  _7
REMARK    5  A    between atoms: _7  and  _8
REMARK    6  A    between atoms: _10  and  _12
REMARK    7  A    between atoms: _12  and  _13
REMARK    8  A    between atoms: _12  and  _15
REMARK    9  A    between atoms: _15  and  _16
REMARK   10  A    between atoms: _19  and  _21
REMARK   11  A    between atoms: _21  and  _22
REMARK   12  A    between atoms: _21  and  _24
REMARK   13  A    between atoms: _24  and  _25
REMARK   14  A    between atoms: _25  and  _26
REMARK   15  A    between atoms: _26  and  _27
REMARK   16  A    between atoms: _36  and  _38
REMARK   17  A    between atoms: _38  and  _39
REMARK   18  A    between atoms: _38  and  _41
REMARK   19  A    between atoms: _41  and  _42
REMARK   20  A    between atoms: _47  and  _48
REMARK   21  A    between atoms: _50  and  _52
REMARK   22  A    between atoms: _52  and  _53
REMARK   23  A    between atoms: _52  and  _55
REMARK   24  A    between atoms: _55  and  _56
REMARK   25  A    between atoms: _56  and  _57
REMARK   26  A    between atoms: _60  and  _62
REMARK   27  A    between atoms: _62  and  _63
REMARK   28  A    between atoms: _62  and  _65
REMARK   29  A    between atoms: _65  and  _66
REMARK   30  A    between atoms: _66  and  _67
REMARK   31  A    between atoms: _72  and  _74
REMARK   32  A    between atoms: _74  and  _75
REMARK   33  A    between atoms: _74  and  _77
REMARK   34  A    between atoms: _77  and  _78
REMARK   35  A    between atoms: _83  and  _85
REMARK   36  A    between atoms: _85  and  _86
REMARK   37  A    between atoms: _85  and  _88
REMARK   38  A    between atoms: _88  and  _89
REMARK   39  A    between atoms: _94  and  _96
REMARK   40  A    between atoms: _96  and  _97
REMARK   41  A    between atoms: _99  and  _101
REMARK   42  A    between atoms: _101  and  _102
REMARK   43  A    between atoms: _101  and  _104
REMARK   44  A    between atoms: _104  and  _105
REMARK   45  A    between atoms: _105  and  _106
REMARK   46  A    between atoms: _108  and  _110
REMARK   47  A    between atoms: _110  and  _111
REMARK   48  A    between atoms: _110  and  _113
REMARK   49  A    between atoms: _113  and  _114
REMARK   50  A    between atoms: _117  and  _119
REMARK   51  A    between atoms: _119  and  _120
REMARK   52  A    between atoms: _119  and  _122
REMARK   53  A    between atoms: _122  and  _123
REMARK   54  A    between atoms: _123  and  _124
REMARK   55  A    between atoms: _127  and  _129
REMARK   56  A    between atoms: _129  and  _130
REMARK   57  A    between atoms: _129  and  _132
REMARK   58  A    between atoms: _132  and  _133
REMARK   59  A    between atoms: _133  and  _134
REMARK   60  A    between atoms: _136  and  _138
REMARK   61  A    between atoms: _138  and  _139
REMARK   62  A    between atoms: _138  and  _141
REMARK   63  A    between atoms: _141  and  _142
REMARK   64  A    between atoms: _152  and  _154
REMARK   65  A    between atoms: _154  and  _155
REMARK   66  A    between atoms: _154  and  _157
REMARK   67  A    between atoms: _157  and  _158
REMARK   68  A    between atoms: _160  and  _162
REMARK   69  A    between atoms: _162  and  _163
REMARK   70  A    between atoms: _162  and  _165
REMARK   71  A    between atoms: _165  and  _166
REMARK   72  A    between atoms: _169  and  _171
REMARK   73  A    between atoms: _171  and  _172
REMARK   74  A    between atoms: _171  and  _174
REMARK   75  A    between atoms: _174  and  _175
REMARK   76  A    between atoms: _175  and  _176
REMARK   77  A    between atoms: _176  and  _177
REMARK   78  A    between atoms: _177  and  _178
REMARK   79  A    between atoms: _182  and  _184
REMARK   80  A    between atoms: _184  and  _185
REMARK   81  A    between atoms: _184  and  _187
REMARK   82  A    between atoms: _187  and  _188
REMARK   83  A    between atoms: _193  and  _194
REMARK   84  A    between atoms: _196  and  _198
REMARK   85  A    between atoms: _198  and  _199
REMARK   86  A    between atoms: _198  and  _201
REMARK   87  A    between atoms: _204  and  _206
REMARK   88  A    between atoms: _206  and  _207
REMARK   89  A    between atoms: _206  and  _209
REMARK   90  A    between atoms: _209  and  _210
REMARK   91  A    between atoms: _215  and  _216
REMARK   92  A    between atoms: _218  and  _220
REMARK   93  A    between atoms: _220  and  _221
REMARK   94  A    between atoms: _220  and  _223
REMARK   95  A    between atoms: _223  and  _224
REMARK   96  A    between atoms: _234  and  _236
REMARK   97  A    between atoms: _236  and  _237
REMARK   98  A    between atoms: _236  and  _239
REMARK   99  A    between atoms: _239  and  _240
REMARK  100  A    between atoms: _243  and  _245
REMARK  101  A    between atoms: _245  and  _246
REMARK  102  A    between atoms: _245  and  _248
REMARK  103  A    between atoms: _248  and  _249
REMARK  104  A    between atoms: _254  and  _255
REMARK  105  A    between atoms: _257  and  _259
REMARK  106  A    between atoms: _259  and  _260
REMARK  107  A    between atoms: _259  and  _262
REMARK  108  A    between atoms: _262  and  _263
REMARK  109  A    between atoms: _268  and  _269
REMARK  110  A    between atoms: _271  and  _273
REMARK  111  A    between atoms: _273  and  _274
REMARK  112  A    between atoms: _277  and  _279
REMARK  113  A    between atoms: _279  and  _280
REMARK  114  A    between atoms: _279  and  _282
REMARK  115  A    between atoms: _282  and  _283
REMARK  116  A    between atoms: _293  and  _295
REMARK  117  A    between atoms: _295  and  _296
REMARK  118  A    between atoms: _295  and  _298
REMARK  119  A    between atoms: _298  and  _299
REMARK  120  A    between atoms: _299  and  _300
REMARK  121  A    between atoms: _300  and  _301
REMARK  122  A    between atoms: _301  and  _302
REMARK  123  A    between atoms: _306  and  _308
REMARK  124  A    between atoms: _308  and  _309
REMARK  125  A    between atoms: _308  and  _311
REMARK  126  A    between atoms: _311  and  _312
REMARK  127  A    between atoms: _322  and  _324
REMARK  128  A    between atoms: _324  and  _325
REMARK  129  A    between atoms: _324  and  _327
REMARK  130  A    between atoms: _327  and  _328
REMARK  131  A    between atoms: _331  and  _333
REMARK  132  A    between atoms: _333  and  _334
REMARK  133  A    between atoms: _333  and  _336
REMARK  134  A    between atoms: _336  and  _337
REMARK  135  A    between atoms: _340  and  _342
REMARK  136  A    between atoms: _342  and  _343
REMARK  137  A    between atoms: _345  and  _347
REMARK  138  A    between atoms: _347  and  _348
REMARK  139  A    between atoms: _347  and  _350
REMARK  140  A    between atoms: _350  and  _351
REMARK  141  A    between atoms: _361  and  _363
REMARK  142  A    between atoms: _363  and  _364
REMARK  143  A    between atoms: _366  and  _368
REMARK  144  A    between atoms: _368  and  _369
REMARK  145  A    between atoms: _368  and  _371
REMARK  146  A    between atoms: _371  and  _372
REMARK  147  A    between atoms: _375  and  _377
REMARK  148  A    between atoms: _377  and  _378
REMARK  149  A    between atoms: _377  and  _380
REMARK  150  A    between atoms: _380  and  _381
REMARK  151  A    between atoms: _386  and  _388
REMARK  152  A    between atoms: _388  and  _389
REMARK  153  A    between atoms: _388  and  _391
REMARK  154  A    between atoms: _391  and  _392
REMARK  155  A    between atoms: _397  and  _399
REMARK  156  A    between atoms: _399  and  _400
REMARK  157  A    between atoms: _399  and  _402
REMARK  158  A    between atoms: _402  and  _403
REMARK                            x       y       z     vdW  Elec       q    Type
REMARK                         _______ _______ _______ _____ _____    ______ ____
ROOT
ATOM      1  CB  ASN A   1      18.995  16.534  35.475  0.00  0.00    +0.110 C 
ENDROOT
BRANCH   1   2
ATOM      2  CG  ASN A   1      19.680  16.906  36.800  0.00  0.00    +0.221 C 
ATOM      3  OD1 ASN A   1      20.105  16.001  37.574  0.00  0.00    -0.275 OA
ATOM      4  ND2 ASN A   1      19.780  18.185  37.076  0.00  0.00    -0.329 N 
ATOM      5 HD21 ASN A   1      20.225  18.492  37.965  0.00  0.00    +0.145 HD
ATOM      6 HD22 ASN A   1      19.415  18.892  36.406  0.00  0.00    +0.145 HD
ENDBRANCH   1   2
BRANCH   1   7
ATOM      7  CA  ASN A   1      19.164  17.602  34.377  0.00  0.00    +0.142 C 
BRANCH   7   8
ATOM      8  N   ASN A   1      18.130  17.447  33.361  0.00  0.00    -0.239 NA
ATOM      9  H   ASN A   1      18.208  16.694  32.648  0.00  0.00    +0.142 HD
ENDBRANCH   7   8
BRANCH   7  10
ATOM     10  C   ASN A   1      20.577  17.549  33.824  0.00  0.00    +0.225 C 
ATOM     11  O   ASN A   1      21.475  17.146  34.541  0.00  0.00    -0.287 OA
ENDBRANCH   7  10
ENDBRANCH   1   7
TORSDOF 4
REMARK  Name = ../refined-set-2016/2epn/2epn_pocket.pdb
REMARK  158 active torsions:
REMARK  status: ('A' for Active; 'I' for Inactive)
REMARK    1  A    between atoms: _1  and  _3
REMARK    2  A    between atoms: _3  and  _4
REMARK    3  A    between atoms: _3  and  _6
REMARK    4  A    between atoms: _6  and  _7
REMARK    5  A    between atoms: _7  and  _8
REMARK    6  A    between atoms: _10  and  _12
REMARK    7  A    between atoms: _12  and  _13
REMARK    8  A    between atoms: _12  and  _15
REMARK    9  A    between atoms: _15  and  _16
REMARK   10  A    between atoms: _19  and  _21
REMARK   11  A    between atoms: _21  and  _22
REMARK   12  A    between atoms: _21  and  _24
REMARK   13  A    between atoms: _24  and  _25
REMARK   14  A    between atoms: _25  and  _26
REMARK   15  A    between atoms: _26  and  _27
REMARK   16  A    between atoms: _36  and  _38
REMARK   17  A    between atoms: _38  and  _39
REMARK   18  A    between atoms: _38  and  _41
REMARK   19  A    between atoms: _41  and  _42
REMARK   20  A    between atoms: _47  and  _48
REMARK   21  A    between atoms: _50  and  _52
REMARK   22  A    between atoms: _52  and  _53
REMARK   23  A    between atoms: _52  and  _55
REMARK   24  A    between atoms: _55  and  _56
REMARK   25  A    between atoms: _56  and  _57
REMARK   26  A    between atoms: _60  and  _62
REMARK   27  A    between atoms: _62  and  _63
REMARK   28  A    between atoms: _62  and  _65
REMARK   29  A    between atoms: _65  and  _66
REMARK   30  A    between atoms: _66  and  _67
REMARK   31  A    between atoms: _72  and  _74
REMARK   32  A    between atoms: _74  and  _75
REMARK   33  A    between atoms: _74  and  _77
REMARK   34  A    between atoms: _77  and  _78
REMARK   35  A    between atoms: _83  and  _85
REMARK   36  A    between atoms: _85  and  _86
REMARK   37  A    between atoms: _85  and  _88
REMARK   38  A    between atoms: _88  and  _89
REMARK   39  A    between atoms: _94  and  _96
REMARK   40  A    between atoms: _96  and  _97
REMARK   41  A    between atoms: _99  and  _101
REMARK   42  A    between atoms: _101  and  _102
REMARK   43  A    between atoms: _101  and  _104
REMARK   44  A    between atoms: _104  and  _105
REMARK   45  A    between atoms: _105  and  _106
REMARK   46  A    between atoms: _108  and  _110
REMARK   47  A    between atoms: _110  and  _111
REMARK   48  A    between atoms: _110  and  _113
REMARK   49  A    between atoms: _113  and  _114
REMARK   50  A    between atoms: _117  and  _119
REMARK   51  A    between atoms: _119  and  _120
REMARK   52  A    between atoms: _119  and  _122
REMARK   53  A    between atoms: _122  and  _123
REMARK   54  A    between atoms: _123  and  _124
REMARK   55  A    between atoms: _127  and  _129
REMARK   56  A    between atoms: _129  and  _130
REMARK   57  A    between atoms: _129  and  _132
REMARK   58  A    between atoms: _132  and  _133
REMARK   59  A    between atoms: _133  and  _134
REMARK   60  A    between atoms: _136  and  _138
REMARK   61  A    between atoms: _138  and  _139
REMARK   62  A    between atoms: _138  and  _141
REMARK   63  A    between atoms: _141  and  _142
REMARK   64  A    between atoms: _152  and  _154
REMARK   65  A    between atoms: _154  and  _155
REMARK   66  A    between atoms: _154  and  _157
REMARK   67  A    between atoms: _157  and  _158
REMARK   68  A    between atoms: _160  and  _162
REMARK   69  A    between atoms: _162  and  _163
REMARK   70  A    between atoms: _162  and  _165
REMARK   71  A    between atoms: _165  and  _166
REMARK   72  A    between atoms: _169  and  _171
REMARK   73  A    between atoms: _171  and  _172
REMARK   74  A    between atoms: _171  and  _174
REMARK   75  A    between atoms: _174  and  _175
REMARK   76  A    between atoms: _175  and  _176
REMARK   77  A    between atoms: _176  and  _177
REMARK   78  A    between atoms: _177  and  _178
REMARK   79  A    between atoms: _182  and  _184
REMARK   80  A    between atoms: _184  and  _185
REMARK   81  A    between atoms: _184  and  _187
REMARK   82  A    between atoms: _187  and  _188
REMARK   83  A    between atoms: _193  and  _194
REMARK   84  A    between atoms: _196  and  _198
REMARK   85  A    between atoms: _198  and  _199
REMARK   86  A    between atoms: _198  and  _201
REMARK   87  A    between atoms: _204  and  _206
REMARK   88  A    between atoms: _206  and  _207
REMARK   89  A    between atoms: _206  and  _209
REMARK   90  A    between atoms: _209  and  _210
REMARK   91  A    between atoms: _215  and  _216
REMARK   92  A    between atoms: _218  and  _220
REMARK   93  A    between atoms: _220  and  _221
REMARK   94  A    between atoms: _220  and  _223
REMARK   95  A    between atoms: _223  and  _224
REMARK   96  A    between atoms: _234  and  _236
REMARK   97  A    between atoms: _236  and  _237
REMARK   98  A    between atoms: _236  and  _239
REMARK   99  A    between atoms: _239  and  _240
REMARK  100  A    between atoms: _243  and  _245
REMARK  101  A    between atoms: _245  and  _246
REMARK  102  A    between atoms: _245  and  _248
REMARK  103  A    between atoms: _248  and  _249
REMARK  104  A    between atoms: _254  and  _255
REMARK  105  A    between atoms: _257  and  _259
REMARK  106  A    between atoms: _259  and  _260
REMARK  107  A    between atoms: _259  and  _262
REMARK  108  A    between atoms: _262  and  _263
REMARK  109  A    between atoms: _268  and  _269
REMARK  110  A    between atoms: _271  and  _273
REMARK  111  A    between atoms: _273  and  _274
REMARK  112  A    between atoms: _277  and  _279
REMARK  113  A    between atoms: _279  and  _280
REMARK  114  A    between atoms: _279  and  _282
REMARK  115  A    between atoms: _282  and  _283
REMARK  116  A    between atoms: _293  and  _295
REMARK  117  A    between atoms: _295  and  _296
REMARK  118  A    between atoms: _295  and  _298
REMARK  119  A    between atoms: _298  and  _299
REMARK  120  A    between atoms: _299  and  _300
REMARK  121  A    between atoms: _300  and  _301
REMARK  122  A    between atoms: _301  and  _302
REMARK  123  A    between atoms: _306  and  _308
REMARK  124  A    between atoms: _308  and  _309
REMARK  125  A    between atoms: _308  and  _311
REMARK  126  A    between atoms: _311  and  _312
REMARK  127  A    between atoms: _322  and  _324
REMARK  128  A    between atoms: _324  and  _325
REMARK  129  A    between atoms: _324  and  _327
REMARK  130  A    between atoms: _327  and  _328
REMARK  131  A    between atoms: _331  and  _333
REMARK  132  A    between atoms: _333  and  _334
REMARK  133  A    between atoms: _333  and  _336
REMARK  134  A    between atoms: _336  and  _337
REMARK  135  A    between atoms: _340  and  _342
REMARK  136  A    between atoms: _342  and  _343
REMARK  137  A    between atoms: _345  and  _347
REMARK  138  A    between atoms: _347  and  _348
REMARK  139  A    between atoms: _347  and  _350
REMARK  140  A    between atoms: _350  and  _351
REMARK  141  A    between atoms: _361  and  _363
REMARK  142  A    between atoms: _363  and  _364
REMARK  143  A    between atoms: _366  and  _368
REMARK  144  A    between atoms: _368  and  _369
REMARK  145  A    between atoms: _368  and  _371
REMARK  146  A    between atoms: _371  and  _372
REMARK  147  A    between atoms: _375  and  _377
REMARK  148  A    between atoms: _377  and  _378
REMARK  149  A    between atoms: _377  and  _380
REMARK  150  A    between atoms: _380  and  _381
REMARK  151  A    between atoms: _386  and  _388
REMARK  152  A    between atoms: _388  and  _389
REMARK  153  A    between atoms: _388  and  _391
REMARK  154  A    between atoms: _391  and  _392
REMARK  155  A    between atoms: _397  and  _399
REMARK  156  A    between atoms: _399  and  _400
REMARK  157  A    between atoms: _399  and  _402
REMARK  158  A    between atoms: _402  and  _403
REMARK                            x       y       z     vdW  Elec       q    Type
REMARK                         _______ _______ _______ _____ _____    ______ ____
ROOT
ATOM      1  CA  THR A   1      26.699  13.717  35.183  0.00  0.00    +0.199 C 
ENDROOT
BRANCH   1   2
ATOM      2  C   THR A   1      27.583  13.392  36.391  0.00  0.00    +0.382 C 
ATOM      3  OXT THR A   1      27.532  14.171  37.398  0.00  0.00    -0.244 OA
ATOM      4  O   THR A   1      28.356  12.383  36.344  0.00  0.00    -0.244 OA
ENDBRANCH   1   2
BRANCH   1   5
ATOM      5  N   THR A   1      27.511  13.876  33.981  0.00  0.00    -0.234 NA
ATOM      6  H   THR A   1      27.545  13.089  33.302  0.00  0.00    +0.142 HD
ENDBRANCH   1   5
BRANCH   1   7
ATOM      7  CB  THR A   1      25.607  12.670  34.937  0.00  0.00    +0.137 C 
ATOM      8  CG2 THR A   1      24.814  12.339  36.210  0.00  0.00    +0.034 C 
BRANCH   7   9
ATOM      9  OG1 THR A   1      24.713  13.167  33.910  0.00  0.00    -0.382 OA
ATOM     10  HG1 THR A   1      24.002  12.499  33.742  0.00  0.00    +0.210 HD
ENDBRANCH   7   9
ENDBRANCH   1   7
TORSDOF 4
REMARK  Name = ../refined-set-2016/2epn/2epn_pocket.pdb
REMARK  158 active torsions:
REMARK  status: ('A' for Active; 'I' for Inactive)
REMARK    1  A    between atoms: _1  and  _3
REMARK    2  A    between atoms: _3  and  _4
REMARK    3  A    between atoms: _3  and  _6
REMARK    4  A    between atoms: _6  and  _7
REMARK    5  A    between atoms: _7  and  _8
REMARK    6  A    between atoms: _10  and  _12
REMARK    7  A    between atoms: _12  and  _13
REMARK    8  A    between atoms: _12  and  _15
REMARK    9  A    between atoms: _15  and  _16
REMARK   10  A    between atoms: _19  and  _21
REMARK   11  A    between atoms: _21  and  _22
REMARK   12  A    between atoms: _21  and  _24
REMARK   13  A    between atoms: _24  and  _25
REMARK   14  A    between atoms: _25  and  _26
REMARK   15  A    between atoms: _26  and  _27
REMARK   16  A    between atoms: _36  and  _38
REMARK   17  A    between atoms: _38  and  _39
REMARK   18  A    between atoms: _38  and  _41
REMARK   19  A    between atoms: _41  and  _42
REMARK   20  A    between atoms: _47  and  _48
REMARK   21  A    between atoms: _50  and  _52
REMARK   22  A    between atoms: _52  and  _53
REMARK   23  A    between atoms: _52  and  _55
REMARK   24  A    between atoms: _55  and  _56
REMARK   25  A    between atoms: _56  and  _57
REMARK   26  A    between atoms: _60  and  _62
REMARK   27  A    between atoms: _62  and  _63
REMARK   28  A    between atoms: _62  and  _65
REMARK   29  A    between atoms: _65  and  _66
REMARK   30  A    between atoms: _66  and  _67
REMARK   31  A    between atoms: _72  and  _74
REMARK   32  A    between atoms: _74  and  _75
REMARK   33  A    between atoms: _74  and  _77
REMARK   34  A    between atoms: _77  and  _78
REMARK   35  A    between atoms: _83  and  _85
REMARK   36  A    between atoms: _85  and  _86
REMARK   37  A    between atoms: _85  and  _88
REMARK   38  A    between atoms: _88  and  _89
REMARK   39  A    between atoms: _94  and  _96
REMARK   40  A    between atoms: _96  and  _97
REMARK   41  A    between atoms: _99  and  _101
REMARK   42  A    between atoms: _101  and  _102
REMARK   43  A    between atoms: _101  and  _104
REMARK   44  A    between atoms: _104  and  _105
REMARK   45  A    between atoms: _105  and  _106
REMARK   46  A    between atoms: _108  and  _110
REMARK   47  A    between atoms: _110  and  _111
REMARK   48  A    between atoms: _110  and  _113
REMARK   49  A    between atoms: _113  and  _114
REMARK   50  A    between atoms: _117  and  _119
REMARK   51  A    between atoms: _119  and  _120
REMARK   52  A    between atoms: _119  and  _122
REMARK   53  A    between atoms: _122  and  _123
REMARK   54  A    between atoms: _123  and  _124
REMARK   55  A    between atoms: _127  and  _129
REMARK   56  A    between atoms: _129  and  _130
REMARK   57  A    between atoms: _129  and  _132
REMARK   58  A    between atoms: _132  and  _133
REMARK   59  A    between atoms: _133  and  _134
REMARK   60  A    between atoms: _136  and  _138
REMARK   61  A    between atoms: _138  and  _139
REMARK   62  A    between atoms: _138  and  _141
REMARK   63  A    between atoms: _141  and  _142
REMARK   64  A    between atoms: _152  and  _154
REMARK   65  A    between atoms: _154  and  _155
REMARK   66  A    between atoms: _154  and  _157
REMARK   67  A    between atoms: _157  and  _158
REMARK   68  A    between atoms: _160  and  _162
REMARK   69  A    between atoms: _162  and  _163
REMARK   70  A    between atoms: _162  and  _165
REMARK   71  A    between atoms: _165  and  _166
REMARK   72  A    between atoms: _169  and  _171
REMARK   73  A    between atoms: _171  and  _172
REMARK   74  A    between atoms: _171  and  _174
REMARK   75  A    between atoms: _174  and  _175
REMARK   76  A    between atoms: _175  and  _176
REMARK   77  A    between atoms: _176  and  _177
REMARK   78  A    between atoms: _177  and  _178
REMARK   79  A    between atoms: _182  and  _184
REMARK   80  A    between atoms: _184  and  _185
REMARK   81  A    between atoms: _184  and  _187
REMARK   82  A    between atoms: _187  and  _188
REMARK   83  A    between atoms: _193  and  _194
REMARK   84  A    between atoms: _196  and  _198
REMARK   85  A    between atoms: _198  and  _199
REMARK   86  A    between atoms: _198  and  _201
REMARK   87  A    between atoms: _204  and  _206
REMARK   88  A    between atoms: _206  and  _207
REMARK   89  A    between atoms: _206  and  _209
REMARK   90  A    between atoms: _209  and  _210
REMARK   91  A    between atoms: _215  and  _216
REMARK   92  A    between atoms: _218  and  _220
REMARK   93  A    between atoms: _220  and  _221
REMARK   94  A    between atoms: _220  and  _223
REMARK   95  A    between atoms: _223  and  _224
REMARK   96  A    between atoms: _234  and  _236
REMARK   97  A    between atoms: _236  and  _237
REMARK   98  A    between atoms: _236  and  _239
REMARK   99  A    between atoms: _239  and  _240
REMARK  100  A    between atoms: _243  and  _245
REMARK  101  A    between atoms: _245  and  _246
REMARK  102  A    between atoms: _245  and  _248
REMARK  103  A    between atoms: _248  and  _249
REMARK  104  A    between atoms: _254  and  _255
REMARK  105  A    between atoms: _257  and  _259
REMARK  106  A    between atoms: _259  and  _260
REMARK  107  A    between atoms: _259  and  _262
REMARK  108  A    between atoms: _262  and  _263
REMARK  109  A    between atoms: _268  and  _269
REMARK  110  A    between atoms: _271  and  _273
REMARK  111  A    between atoms: _273  and  _274
REMARK  112  A    between atoms: _277  and  _279
REMARK  113  A    between atoms: _279  and  _280
REMARK  114  A    between atoms: _279  and  _282
REMARK  115  A    between atoms: _282  and  _283
REMARK  116  A    between atoms: _293  and  _295
REMARK  117  A    between atoms: _295  and  _296
REMARK  118  A    between atoms: _295  and  _298
REMARK  119  A    between atoms: _298  and  _299
REMARK  120  A    between atoms: _299  and  _300
REMARK  121  A    between atoms: _300  and  _301
REMARK  122  A    between atoms: _301  and  _302
REMARK  123  A    between atoms: _306  and  _308
REMARK  124  A    between atoms: _308  and  _309
REMARK  125  A    between atoms: _308  and  _311
REMARK  126  A    between atoms: _311  and  _312
REMARK  127  A    between atoms: _322  and  _324
REMARK  128  A    between atoms: _324  and  _325
REMARK  129  A    between atoms: _324  and  _327
REMARK  130  A    between atoms: _327  and  _328
REMARK  131  A    between atoms: _331  and  _333
REMARK  132  A    between atoms: _333  and  _334
REMARK  133  A    between atoms: _333  and  _336
REMARK  134  A    between atoms: _336  and  _337
REMARK  135  A    between atoms: _340  and  _342
REMARK  136  A    between atoms: _342  and  _343
REMARK  137  A    between atoms: _345  and  _347
REMARK  138  A    between atoms: _347  and  _348
REMARK  139  A    between atoms: _347  and  _350
REMARK  140  A    between atoms: _350  and  _351
REMARK  141  A    between atoms: _361  and  _363
REMARK  142  A    between atoms: _363  and  _364
REMARK  143  A    between atoms: _366  and  _368
REMARK  144  A    between atoms: _368  and  _369
REMARK  145  A    between atoms: _368  and  _371
REMARK  146  A    between atoms: _371  and  _372
REMARK  147  A    between atoms: _375  and  _377
REMARK  148  A    between atoms: _377  and  _378
REMARK  149  A    between atoms: _377  and  _380
REMARK  150  A    between atoms: _380  and  _381
REMARK  151  A    between atoms: _386  and  _388
REMARK  152  A    between atoms: _388  and  _389
REMARK  153  A    between atoms: _388  and  _391
REMARK  154  A    between atoms: _391  and  _392
REMARK  155  A    between atoms: _397  and  _399
REMARK  156  A    between atoms: _399  and  _400
REMARK  157  A    between atoms: _399  and  _402
REMARK  158  A    between atoms: _402  and  _403
REMARK                            x       y       z     vdW  Elec       q    Type
REMARK                         _______ _______ _______ _____ _____    ______ ____
ROOT
ATOM      1  O   HOH     1      32.058  13.505  38.294  0.00  0.00    +0.000 OA
ENDROOT
TORSDOF 0
REMARK  Name = ../refined-set-2016/2epn/2epn_pocket.pdb
REMARK  158 active torsions:
REMARK  status: ('A' for Active; 'I' for Inactive)
REMARK    1  A    between atoms: _1  and  _3
REMARK    2  A    between atoms: _3  and  _4
REMARK    3  A    between atoms: _3  and  _6
REMARK    4  A    between atoms: _6  and  _7
REMARK    5  A    between atoms: _7  and  _8
REMARK    6  A    between atoms: _10  and  _12
REMARK    7  A    between atoms: _12  and  _13
REMARK    8  A    between atoms: _12  and  _15
REMARK    9  A    between atoms: _15  and  _16
REMARK   10  A    between atoms: _19  and  _21
REMARK   11  A    between atoms: _21  and  _22
REMARK   12  A    between atoms: _21  and  _24
REMARK   13  A    between atoms: _24  and  _25
REMARK   14  A    between atoms: _25  and  _26
REMARK   15  A    between atoms: _26  and  _27
REMARK   16  A    between atoms: _36  and  _38
REMARK   17  A    between atoms: _38  and  _39
REMARK   18  A    between atoms: _38  and  _41
REMARK   19  A    between atoms: _41  and  _42
REMARK   20  A    between atoms: _47  and  _48
REMARK   21  A    between atoms: _50  and  _52
REMARK   22  A    between atoms: _52  and  _53
REMARK   23  A    between atoms: _52  and  _55
REMARK   24  A    between atoms: _55  and  _56
REMARK   25  A    between atoms: _56  and  _57
REMARK   26  A    between atoms: _60  and  _62
REMARK   27  A    between atoms: _62  and  _63
REMARK   28  A    between atoms: _62  and  _65
REMARK   29  A    between atoms: _65  and  _66
REMARK   30  A    between atoms: _66  and  _67
REMARK   31  A    between atoms: _72  and  _74
REMARK   32  A    between atoms: _74  and  _75
REMARK   33  A    between atoms: _74  and  _77
REMARK   34  A    between atoms: _77  and  _78
REMARK   35  A    between atoms: _83  and  _85
REMARK   36  A    between atoms: _85  and  _86
REMARK   37  A    between atoms: _85  and  _88
REMARK   38  A    between atoms: _88  and  _89
REMARK   39  A    between atoms: _94  and  _96
REMARK   40  A    between atoms: _96  and  _97
REMARK   41  A    between atoms: _99  and  _101
REMARK   42  A    between atoms: _101  and  _102
REMARK   43  A    between atoms: _101  and  _104
REMARK   44  A    between atoms: _104  and  _105
REMARK   45  A    between atoms: _105  and  _106
REMARK   46  A    between atoms: _108  and  _110
REMARK   47  A    between atoms: _110  and  _111
REMARK   48  A    between atoms: _110  and  _113
REMARK   49  A    between atoms: _113  and  _114
REMARK   50  A    between atoms: _117  and  _119
REMARK   51  A    between atoms: _119  and  _120
REMARK   52  A    between atoms: _119  and  _122
REMARK   53  A    between atoms: _122  and  _123
REMARK   54  A    between atoms: _123  and  _124
REMARK   55  A    between atoms: _127  and  _129
REMARK   56  A    between atoms: _129  and  _130
REMARK   57  A    between atoms: _129  and  _132
REMARK   58  A    between atoms: _132  and  _133
REMARK   59  A    between atoms: _133  and  _134
REMARK   60  A    between atoms: _136  and  _138
REMARK   61  A    between atoms: _138  and  _139
REMARK   62  A    between atoms: _138  and  _141
REMARK   63  A    between atoms: _141  and  _142
REMARK   64  A    between atoms: _152  and  _154
REMARK   65  A    between atoms: _154  and  _155
REMARK   66  A    between atoms: _154  and  _157
REMARK   67  A    between atoms: _157  and  _158
REMARK   68  A    between atoms: _160  and  _162
REMARK   69  A    between atoms: _162  and  _163
REMARK   70  A    between atoms: _162  and  _165
REMARK   71  A    between atoms: _165  and  _166
REMARK   72  A    between atoms: _169  and  _171
REMARK   73  A    between atoms: _171  and  _172
REMARK   74  A    between atoms: _171  and  _174
REMARK   75  A    between atoms: _174  and  _175
REMARK   76  A    between atoms: _175  and  _176
REMARK   77  A    between atoms: _176  and  _177
REMARK   78  A    between atoms: _177  and  _178
REMARK   79  A    between atoms: _182  and  _184
REMARK   80  A    between atoms: _184  and  _185
REMARK   81  A    between atoms: _184  and  _187
REMARK   82  A    between atoms: _187  and  _188
REMARK   83  A    between atoms: _193  and  _194
REMARK   84  A    between atoms: _196  and  _198
REMARK   85  A    between atoms: _198  and  _199
REMARK   86  A    between atoms: _198  and  _201
REMARK   87  A    between atoms: _204  and  _206
REMARK   88  A    between atoms: _206  and  _207
REMARK   89  A    between atoms: _206  and  _209
REMARK   90  A    between atoms: _209  and  _210
REMARK   91  A    between atoms: _215  and  _216
REMARK   92  A    between atoms: _218  and  _220
REMARK   93  A    between atoms: _220  and  _221
REMARK   94  A    between atoms: _220  and  _223
REMARK   95  A    between atoms: _223  and  _224
REMARK   96  A    between atoms: _234  and  _236
REMARK   97  A    between atoms: _236  and  _237
REMARK   98  A    between atoms: _236  and  _239
REMARK   99  A    between atoms: _239  and  _240
REMARK  100  A    between atoms: _243  and  _245
REMARK  101  A    between atoms: _245  and  _246
REMARK  102  A    between atoms: _245  and  _248
REMARK  103  A    between atoms: _248  and  _249
REMARK  104  A    between atoms: _254  and  _255
REMARK  105  A    between atoms: _257  and  _259
REMARK  106  A    between atoms: _259  and  _260
REMARK  107  A    between atoms: _259  and  _262
REMARK  108  A    between atoms: _262  and  _263
REMARK  109  A    between atoms: _268  and  _269
REMARK  110  A    between atoms: _271  and  _273
REMARK  111  A    between atoms: _273  and  _274
REMARK  112  A    between atoms: _277  and  _279
REMARK  113  A    between atoms: _279  and  _280
REMARK  114  A    between atoms: _279  and  _282
REMARK  115  A    between atoms: _282  and  _283
REMARK  116  A    between atoms: _293  and  _295
REMARK  117  A    between atoms: _295  and  _296
REMARK  118  A    between atoms: _295  and  _298
REMARK  119  A    between atoms: _298  and  _299
REMARK  120  A    between atoms: _299  and  _300
REMARK  121  A    between atoms: _300  and  _301
REMARK  122  A    between atoms: _301  and  _302
REMARK  123  A    between atoms: _306  and  _308
REMARK  124  A    between atoms: _308  and  _309
REMARK  125  A    between atoms: _308  and  _311
REMARK  126  A    between atoms: _311  and  _312
REMARK  127  A    between atoms: _322  and  _324
REMARK  128  A    between atoms: _324  and  _325
REMARK  129  A    between atoms: _324  and  _327
REMARK  130  A    between atoms: _327  and  _328
REMARK  131  A    between atoms: _331  and  _333
REMARK  132  A    between atoms: _333  and  _334
REMARK  133  A    between atoms: _333  and  _336
REMARK  134  A    between atoms: _336  and  _337
REMARK  135  A    between atoms: _340  and  _342
REMARK  136  A    between atoms: _342  and  _343
REMARK  137  A    between atoms: _345  and  _347
REMARK  138  A    between atoms: _347  and  _348
REMARK  139  A    between atoms: _347  and  _350
REMARK  140  A    between atoms: _350  and  _351
REMARK  141  A    between atoms: _361  and  _363
REMARK  142  A    between atoms: _363  and  _364
REMARK  143  A    between atoms: _366  and  _368
REMARK  144  A    between atoms: _368  and  _369
REMARK  145  A    between atoms: _368  and  _371
REMARK  146  A    between atoms: _371  and  _372
REMARK  147  A    between atoms: _375  and  _377
REMARK  148  A    between atoms: _377  and  _378
REMARK  149  A    between atoms: _377  and  _380
REMARK  150  A    between atoms: _380  and  _381
REMARK  151  A    between atoms: _386  and  _388
REMARK  152  A    between atoms: _388  and  _389
REMARK  153  A    between atoms: _388  and  _391
REMARK  154  A    between atoms: _391  and  _392
REMARK  155  A    between atoms: _397  and  _399
REMARK  156  A    between atoms: _399  and  _400
REMARK  157  A    between atoms: _399  and  _402
REMARK  158  A    between atoms: _402  and  _403
REMARK                            x       y       z     vdW  Elec       q    Type
REMARK                         _______ _______ _______ _____ _____    ______ ____
ROOT
ATOM      1  O   HOH     1      21.198  13.180  36.574  0.00  0.00    +0.000 OA
ENDROOT
TORSDOF 0
REMARK  Name = ../refined-set-2016/2epn/2epn_pocket.pdb
REMARK  158 active torsions:
REMARK  status: ('A' for Active; 'I' for Inactive)
REMARK    1  A    between atoms: _1  and  _3
REMARK    2  A    between atoms: _3  and  _4
REMARK    3  A    between atoms: _3  and  _6
REMARK    4  A    between atoms: _6  and  _7
REMARK    5  A    between atoms: _7  and  _8
REMARK    6  A    between atoms: _10  and  _12
REMARK    7  A    between atoms: _12  and  _13
REMARK    8  A    between atoms: _12  and  _15
REMARK    9  A    between atoms: _15  and  _16
REMARK   10  A    between atoms: _19  and  _21
REMARK   11  A    between atoms: _21  and  _22
REMARK   12  A    between atoms: _21  and  _24
REMARK   13  A    between atoms: _24  and  _25
REMARK   14  A    between atoms: _25  and  _26
REMARK   15  A    between atoms: _26  and  _27
REMARK   16  A    between atoms: _36  and  _38
REMARK   17  A    between atoms: _38  and  _39
REMARK   18  A    between atoms: _38  and  _41
REMARK   19  A    between atoms: _41  and  _42
REMARK   20  A    between atoms: _47  and  _48
REMARK   21  A    between atoms: _50  and  _52
REMARK   22  A    between atoms: _52  and  _53
REMARK   23  A    between atoms: _52  and  _55
REMARK   24  A    between atoms: _55  and  _56
REMARK   25  A    between atoms: _56  and  _57
REMARK   26  A    between atoms: _60  and  _62
REMARK   27  A    between atoms: _62  and  _63
REMARK   28  A    between atoms: _62  and  _65
REMARK   29  A    between atoms: _65  and  _66
REMARK   30  A    between atoms: _66  and  _67
REMARK   31  A    between atoms: _72  and  _74
REMARK   32  A    between atoms: _74  and  _75
REMARK   33  A    between atoms: _74  and  _77
REMARK   34  A    between atoms: _77  and  _78
REMARK   35  A    between atoms: _83  and  _85
REMARK   36  A    between atoms: _85  and  _86
REMARK   37  A    between atoms: _85  and  _88
REMARK   38  A    between atoms: _88  and  _89
REMARK   39  A    between atoms: _94  and  _96
REMARK   40  A    between atoms: _96  and  _97
REMARK   41  A    between atoms: _99  and  _101
REMARK   42  A    between atoms: _101  and  _102
REMARK   43  A    between atoms: _101  and  _104
REMARK   44  A    between atoms: _104  and  _105
REMARK   45  A    between atoms: _105  and  _106
REMARK   46  A    between atoms: _108  and  _110
REMARK   47  A    between atoms: _110  and  _111
REMARK   48  A    between atoms: _110  and  _113
REMARK   49  A    between atoms: _113  and  _114
REMARK   50  A    between atoms: _117  and  _119
REMARK   51  A    between atoms: _119  and  _120
REMARK   52  A    between atoms: _119  and  _122
REMARK   53  A    between atoms: _122  and  _123
REMARK   54  A    between atoms: _123  and  _124
REMARK   55  A    between atoms: _127  and  _129
REMARK   56  A    between atoms: _129  and  _130
REMARK   57  A    between atoms: _129  and  _132
REMARK   58  A    between atoms: _132  and  _133
REMARK   59  A    between atoms: _133  and  _134
REMARK   60  A    between atoms: _136  and  _138
REMARK   61  A    between atoms: _138  and  _139
REMARK   62  A    between atoms: _138  and  _141
REMARK   63  A    between atoms: _141  and  _142
REMARK   64  A    between atoms: _152  and  _154
REMARK   65  A    between atoms: _154  and  _155
REMARK   66  A    between atoms: _154  and  _157
REMARK   67  A    between atoms: _157  and  _158
REMARK   68  A    between atoms: _160  and  _162
REMARK   69  A    between atoms: _162  and  _163
REMARK   70  A    between atoms: _162  and  _165
REMARK   71  A    between atoms: _165  and  _166
REMARK   72  A    between atoms: _169  and  _171
REMARK   73  A    between atoms: _171  and  _172
REMARK   74  A    between atoms: _171  and  _174
REMARK   75  A    between atoms: _174  and  _175
REMARK   76  A    between atoms: _175  and  _176
REMARK   77  A    between atoms: _176  and  _177
REMARK   78  A    between atoms: _177  and  _178
REMARK   79  A    between atoms: _182  and  _184
REMARK   80  A    between atoms: _184  and  _185
REMARK   81  A    between atoms: _184  and  _187
REMARK   82  A    between atoms: _187  and  _188
REMARK   83  A    between atoms: _193  and  _194
REMARK   84  A    between atoms: _196  and  _198
REMARK   85  A    between atoms: _198  and  _199
REMARK   86  A    between atoms: _198  and  _201
REMARK   87  A    between atoms: _204  and  _206
REMARK   88  A    between atoms: _206  and  _207
REMARK   89  A    between atoms: _206  and  _209
REMARK   90  A    between atoms: _209  and  _210
REMARK   91  A    between atoms: _215  and  _216
REMARK   92  A    between atoms: _218  and  _220
REMARK   93  A    between atoms: _220  and  _221
REMARK   94  A    between atoms: _220  and  _223
REMARK   95  A    between atoms: _223  and  _224
REMARK   96  A    between atoms: _234  and  _236
REMARK   97  A    between atoms: _236  and  _237
REMARK   98  A    between atoms: _236  and  _239
REMARK   99  A    between atoms: _239  and  _240
REMARK  100  A    between atoms: _243  and  _245
REMARK  101  A    between atoms: _245  and  _246
REMARK  102  A    between atoms: _245  and  _248
REMARK  103  A    between atoms: _248  and  _249
REMARK  104  A    between atoms: _254  and  _255
REMARK  105  A    between atoms: _257  and  _259
REMARK  106  A    between atoms: _259  and  _260
REMARK  107  A    between atoms: _259  and  _262
REMARK  108  A    between atoms: _262  and  _263
REMARK  109  A    between atoms: _268  and  _269
REMARK  110  A    between atoms: _271  and  _273
REMARK  111  A    between atoms: _273  and  _274
REMARK  112  A    between atoms: _277  and  _279
REMARK  113  A    between atoms: _279  and  _280
REMARK  114  A    between atoms: _279  and  _282
REMARK  115  A    between atoms: _282  and  _283
REMARK  116  A    between atoms: _293  and  _295
REMARK  117  A    between atoms: _295  and  _296
REMARK  118  A    between atoms: _295  and  _298
REMARK  119  A    between atoms: _298  and  _299
REMARK  120  A    between atoms: _299  and  _300
REMARK  121  A    between atoms: _300  and  _301
REMARK  122  A    between atoms: _301  and  _302
REMARK  123  A    between atoms: _306  and  _308
REMARK  124  A    between atoms: _308  and  _309
REMARK  125  A    between atoms: _308  and  _311
REMARK  126  A    between atoms: _311  and  _312
REMARK  127  A    between atoms: _322  and  _324
REMARK  128  A    between atoms: _324  and  _325
REMARK  129  A    between atoms: _324  and  _327
REMARK  130  A    between atoms: _327  and  _328
REMARK  131  A    between atoms: _331  and  _333
REMARK  132  A    between atoms: _333  and  _334
REMARK  133  A    between atoms: _333  and  _336
REMARK  134  A    between atoms: _336  and  _337
REMARK  135  A    between atoms: _340  and  _342
REMARK  136  A    between atoms: _342  and  _343
REMARK  137  A    between atoms: _345  and  _347
REMARK  138  A    between atoms: _347  and  _348
REMARK  139  A    between atoms: _347  and  _350
REMARK  140  A    between atoms: _350  and  _351
REMARK  141  A    between atoms: _361  and  _363
REMARK  142  A    between atoms: _363  and  _364
REMARK  143  A    between atoms: _366  and  _368
REMARK  144  A    between atoms: _368  and  _369
REMARK  145  A    between atoms: _368  and  _371
REMARK  146  A    between atoms: _371  and  _372
REMARK  147  A    between atoms: _375  and  _377
REMARK  148  A    between atoms: _377  and  _378
REMARK  149  A    between atoms: _377  and  _380
REMARK  150  A    between atoms: _380  and  _381
REMARK  151  A    between atoms: _386  and  _388
REMARK  152  A    between atoms: _388  and  _389
REMARK  153  A    between atoms: _388  and  _391
REMARK  154  A    between atoms: _391  and  _392
REMARK  155  A    between atoms: _397  and  _399
REMARK  156  A    between atoms: _399  and  _400
REMARK  157  A    between atoms: _399  and  _402
REMARK  158  A    between atoms: _402  and  _403
REMARK                            x       y       z     vdW  Elec       q    Type
REMARK                         _______ _______ _______ _____ _____    ______ ____
ROOT
ATOM      1  O   HOH     1      25.079   8.497  36.474  0.00  0.00    +0.000 OA
ENDROOT
TORSDOF 0
REMARK  Name = ../refined-set-2016/2epn/2epn_pocket.pdb
REMARK  158 active torsions:
REMARK  status: ('A' for Active; 'I' for Inactive)
REMARK    1  A    between atoms: _1  and  _3
REMARK    2  A    between atoms: _3  and  _4
REMARK    3  A    between atoms: _3  and  _6
REMARK    4  A    between atoms: _6  and  _7
REMARK    5  A    between atoms: _7  and  _8
REMARK    6  A    between atoms: _10  and  _12
REMARK    7  A    between atoms: _12  and  _13
REMARK    8  A    between atoms: _12  and  _15
REMARK    9  A    between atoms: _15  and  _16
REMARK   10  A    between atoms: _19  and  _21
REMARK   11  A    between atoms: _21  and  _22
REMARK   12  A    between atoms: _21  and  _24
REMARK   13  A    between atoms: _24  and  _25
REMARK   14  A    between atoms: _25  and  _26
REMARK   15  A    between atoms: _26  and  _27
REMARK   16  A    between atoms: _36  and  _38
REMARK   17  A    between atoms: _38  and  _39
REMARK   18  A    between atoms: _38  and  _41
REMARK   19  A    between atoms: _41  and  _42
REMARK   20  A    between atoms: _47  and  _48
REMARK   21  A    between atoms: _50  and  _52
REMARK   22  A    between atoms: _52  and  _53
REMARK   23  A    between atoms: _52  and  _55
REMARK   24  A    between atoms: _55  and  _56
REMARK   25  A    between atoms: _56  and  _57
REMARK   26  A    between atoms: _60  and  _62
REMARK   27  A    between atoms: _62  and  _63
REMARK   28  A    between atoms: _62  and  _65
REMARK   29  A    between atoms: _65  and  _66
REMARK   30  A    between atoms: _66  and  _67
REMARK   31  A    between atoms: _72  and  _74
REMARK   32  A    between atoms: _74  and  _75
REMARK   33  A    between atoms: _74  and  _77
REMARK   34  A    between atoms: _77  and  _78
REMARK   35  A    between atoms: _83  and  _85
REMARK   36  A    between atoms: _85  and  _86
REMARK   37  A    between atoms: _85  and  _88
REMARK   38  A    between atoms: _88  and  _89
REMARK   39  A    between atoms: _94  and  _96
REMARK   40  A    between atoms: _96  and  _97
REMARK   41  A    between atoms: _99  and  _101
REMARK   42  A    between atoms: _101  and  _102
REMARK   43  A    between atoms: _101  and  _104
REMARK   44  A    between atoms: _104  and  _105
REMARK   45  A    between atoms: _105  and  _106
REMARK   46  A    between atoms: _108  and  _110
REMARK   47  A    between atoms: _110  and  _111
REMARK   48  A    between atoms: _110  and  _113
REMARK   49  A    between atoms: _113  and  _114
REMARK   50  A    between atoms: _117  and  _119
REMARK   51  A    between atoms: _119  and  _120
REMARK   52  A    between atoms: _119  and  _122
REMARK   53  A    between atoms: _122  and  _123
REMARK   54  A    between atoms: _123  and  _124
REMARK   55  A    between atoms: _127  and  _129
REMARK   56  A    between atoms: _129  and  _130
REMARK   57  A    between atoms: _129  and  _132
REMARK   58  A    between atoms: _132  and  _133
REMARK   59  A    between atoms: _133  and  _134
REMARK   60  A    between atoms: _136  and  _138
REMARK   61  A    between atoms: _138  and  _139
REMARK   62  A    between atoms: _138  and  _141
REMARK   63  A    between atoms: _141  and  _142
REMARK   64  A    between atoms: _152  and  _154
REMARK   65  A    between atoms: _154  and  _155
REMARK   66  A    between atoms: _154  and  _157
REMARK   67  A    between atoms: _157  and  _158
REMARK   68  A    between atoms: _160  and  _162
REMARK   69  A    between atoms: _162  and  _163
REMARK   70  A    between atoms: _162  and  _165
REMARK   71  A    between atoms: _165  and  _166
REMARK   72  A    between atoms: _169  and  _171
REMARK   73  A    between atoms: _171  and  _172
REMARK   74  A    between atoms: _171  and  _174
REMARK   75  A    between atoms: _174  and  _175
REMARK   76  A    between atoms: _175  and  _176
REMARK   77  A    between atoms: _176  and  _177
REMARK   78  A    between atoms: _177  and  _178
REMARK   79  A    between atoms: _182  and  _184
REMARK   80  A    between atoms: _184  and  _185
REMARK   81  A    between atoms: _184  and  _187
REMARK   82  A    between atoms: _187  and  _188
REMARK   83  A    between atoms: _193  and  _194
REMARK   84  A    between atoms: _196  and  _198
REMARK   85  A    between atoms: _198  and  _199
REMARK   86  A    between atoms: _198  and  _201
REMARK   87  A    between atoms: _204  and  _206
REMARK   88  A    between atoms: _206  and  _207
REMARK   89  A    between atoms: _206  and  _209
REMARK   90  A    between atoms: _209  and  _210
REMARK   91  A    between atoms: _215  and  _216
REMARK   92  A    between atoms: _218  and  _220
REMARK   93  A    between atoms: _220  and  _221
REMARK   94  A    between atoms: _220  and  _223
REMARK   95  A    between atoms: _223  and  _224
REMARK   96  A    between atoms: _234  and  _236
REMARK   97  A    between atoms: _236  and  _237
REMARK   98  A    between atoms: _236  and  _239
REMARK   99  A    between atoms: _239  and  _240
REMARK  100  A    between atoms: _243  and  _245
REMARK  101  A    between atoms: _245  and  _246
REMARK  102  A    between atoms: _245  and  _248
REMARK  103  A    between atoms: _248  and  _249
REMARK  104  A    between atoms: _254  and  _255
REMARK  105  A    between atoms: _257  and  _259
REMARK  106  A    between atoms: _259  and  _260
REMARK  107  A    between atoms: _259  and  _262
REMARK  108  A    between atoms: _262  and  _263
REMARK  109  A    between atoms: _268  and  _269
REMARK  110  A    between atoms: _271  and  _273
REMARK  111  A    between atoms: _273  and  _274
REMARK  112  A    between atoms: _277  and  _279
REMARK  113  A    between atoms: _279  and  _280
REMARK  114  A    between atoms: _279  and  _282
REMARK  115  A    between atoms: _282  and  _283
REMARK  116  A    between atoms: _293  and  _295
REMARK  117  A    between atoms: _295  and  _296
REMARK  118  A    between atoms: _295  and  _298
REMARK  119  A    between atoms: _298  and  _299
REMARK  120  A    between atoms: _299  and  _300
REMARK  121  A    between atoms: _300  and  _301
REMARK  122  A    between atoms: _301  and  _302
REMARK  123  A    between atoms: _306  and  _308
REMARK  124  A    between atoms: _308  and  _309
REMARK  125  A    between atoms: _308  and  _311
REMARK  126  A    between atoms: _311  and  _312
REMARK  127  A    between atoms: _322  and  _324
REMARK  128  A    between atoms: _324  and  _325
REMARK  129  A    between atoms: _324  and  _327
REMARK  130  A    between atoms: _327  and  _328
REMARK  131  A    between atoms: _331  and  _333
REMARK  132  A    between atoms: _333  and  _334
REMARK  133  A    between atoms: _333  and  _336
REMARK  134  A    between atoms: _336  and  _337
REMARK  135  A    between atoms: _340  and  _342
REMARK  136  A    between atoms: _342  and  _343
REMARK  137  A    between atoms: _345  and  _347
REMARK  138  A    between atoms: _347  and  _348
REMARK  139  A    between atoms: _347  and  _350
REMARK  140  A    between atoms: _350  and  _351
REMARK  141  A    between atoms: _361  and  _363
REMARK  142  A    between atoms: _363  and  _364
REMARK  143  A    between atoms: _366  and  _368
REMARK  144  A    between atoms: _368  and  _369
REMARK  145  A    between atoms: _368  and  _371
REMARK  146  A    between atoms: _371  and  _372
REMARK  147  A    between atoms: _375  and  _377
REMARK  148  A    between atoms: _377  and  _378
REMARK  149  A    between atoms: _377  and  _380
REMARK  150  A    between atoms: _380  and  _381
REMARK  151  A    between atoms: _386  and  _388
REMARK  152  A    between atoms: _388  and  _389
REMARK  153  A    between atoms: _388  and  _391
REMARK  154  A    between atoms: _391  and  _392
REMARK  155  A    between atoms: _397  and  _399
REMARK  156  A    between atoms: _399  and  _400
REMARK  157  A    between atoms: _399  and  _402
REMARK  158  A    between atoms: _402  and  _403
REMARK                            x       y       z     vdW  Elec       q    Type
REMARK                         _______ _______ _______ _____ _____    ______ ____
ROOT
ATOM      1  O   HOH     1      28.505   6.974  40.765  0.00  0.00    +0.000 OA
ENDROOT
TORSDOF 0
REMARK  Name = ../refined-set-2016/2epn/2epn_pocket.pdb
REMARK  158 active torsions:
REMARK  status: ('A' for Active; 'I' for Inactive)
REMARK    1  A    between atoms: _1  and  _3
REMARK    2  A    between atoms: _3  and  _4
REMARK    3  A    between atoms: _3  and  _6
REMARK    4  A    between atoms: _6  and  _7
REMARK    5  A    between atoms: _7  and  _8
REMARK    6  A    between atoms: _10  and  _12
REMARK    7  A    between atoms: _12  and  _13
REMARK    8  A    between atoms: _12  and  _15
REMARK    9  A    between atoms: _15  and  _16
REMARK   10  A    between atoms: _19  and  _21
REMARK   11  A    between atoms: _21  and  _22
REMARK   12  A    between atoms: _21  and  _24
REMARK   13  A    between atoms: _24  and  _25
REMARK   14  A    between atoms: _25  and  _26
REMARK   15  A    between atoms: _26  and  _27
REMARK   16  A    between atoms: _36  and  _38
REMARK   17  A    between atoms: _38  and  _39
REMARK   18  A    between atoms: _38  and  _41
REMARK   19  A    between atoms: _41  and  _42
REMARK   20  A    between atoms: _47  and  _48
REMARK   21  A    between atoms: _50  and  _52
REMARK   22  A    between atoms: _52  and  _53
REMARK   23  A    between atoms: _52  and  _55
REMARK   24  A    between atoms: _55  and  _56
REMARK   25  A    between atoms: _56  and  _57
REMARK   26  A    between atoms: _60  and  _62
REMARK   27  A    between atoms: _62  and  _63
REMARK   28  A    between atoms: _62  and  _65
REMARK   29  A    between atoms: _65  and  _66
REMARK   30  A    between atoms: _66  and  _67
REMARK   31  A    between atoms: _72  and  _74
REMARK   32  A    between atoms: _74  and  _75
REMARK   33  A    between atoms: _74  and  _77
REMARK   34  A    between atoms: _77  and  _78
REMARK   35  A    between atoms: _83  and  _85
REMARK   36  A    between atoms: _85  and  _86
REMARK   37  A    between atoms: _85  and  _88
REMARK   38  A    between atoms: _88  and  _89
REMARK   39  A    between atoms: _94  and  _96
REMARK   40  A    between atoms: _96  and  _97
REMARK   41  A    between atoms: _99  and  _101
REMARK   42  A    between atoms: _101  and  _102
REMARK   43  A    between atoms: _101  and  _104
REMARK   44  A    between atoms: _104  and  _105
REMARK   45  A    between atoms: _105  and  _106
REMARK   46  A    between atoms: _108  and  _110
REMARK   47  A    between atoms: _110  and  _111
REMARK   48  A    between atoms: _110  and  _113
REMARK   49  A    between atoms: _113  and  _114
REMARK   50  A    between atoms: _117  and  _119
REMARK   51  A    between atoms: _119  and  _120
REMARK   52  A    between atoms: _119  and  _122
REMARK   53  A    between atoms: _122  and  _123
REMARK   54  A    between atoms: _123  and  _124
REMARK   55  A    between atoms: _127  and  _129
REMARK   56  A    between atoms: _129  and  _130
REMARK   57  A    between atoms: _129  and  _132
REMARK   58  A    between atoms: _132  and  _133
REMARK   59  A    between atoms: _133  and  _134
REMARK   60  A    between atoms: _136  and  _138
REMARK   61  A    between atoms: _138  and  _139
REMARK   62  A    between atoms: _138  and  _141
REMARK   63  A    between atoms: _141  and  _142
REMARK   64  A    between atoms: _152  and  _154
REMARK   65  A    between atoms: _154  and  _155
REMARK   66  A    between atoms: _154  and  _157
REMARK   67  A    between atoms: _157  and  _158
REMARK   68  A    between atoms: _160  and  _162
REMARK   69  A    between atoms: _162  and  _163
REMARK   70  A    between atoms: _162  and  _165
REMARK   71  A    between atoms: _165  and  _166
REMARK   72  A    between atoms: _169  and  _171
REMARK   73  A    between atoms: _171  and  _172
REMARK   74  A    between atoms: _171  and  _174
REMARK   75  A    between atoms: _174  and  _175
REMARK   76  A    between atoms: _175  and  _176
REMARK   77  A    between atoms: _176  and  _177
REMARK   78  A    between atoms: _177  and  _178
REMARK   79  A    between atoms: _182  and  _184
REMARK   80  A    between atoms: _184  and  _185
REMARK   81  A    between atoms: _184  and  _187
REMARK   82  A    between atoms: _187  and  _188
REMARK   83  A    between atoms: _193  and  _194
REMARK   84  A    between atoms: _196  and  _198
REMARK   85  A    between atoms: _198  and  _199
REMARK   86  A    between atoms: _198  and  _201
REMARK   87  A    between atoms: _204  and  _206
REMARK   88  A    between atoms: _206  and  _207
REMARK   89  A    between atoms: _206  and  _209
REMARK   90  A    between atoms: _209  and  _210
REMARK   91  A    between atoms: _215  and  _216
REMARK   92  A    between atoms: _218  and  _220
REMARK   93  A    between atoms: _220  and  _221
REMARK   94  A    between atoms: _220  and  _223
REMARK   95  A    between atoms: _223  and  _224
REMARK   96  A    between atoms: _234  and  _236
REMARK   97  A    between atoms: _236  and  _237
REMARK   98  A    between atoms: _236  and  _239
REMARK   99  A    between atoms: _239  and  _240
REMARK  100  A    between atoms: _243  and  _245
REMARK  101  A    between atoms: _245  and  _246
REMARK  102  A    between atoms: _245  and  _248
REMARK  103  A    between atoms: _248  and  _249
REMARK  104  A    between atoms: _254  and  _255
REMARK  105  A    between atoms: _257  and  _259
REMARK  106  A    between atoms: _259  and  _260
REMARK  107  A    between atoms: _259  and  _262
REMARK  108  A    between atoms: _262  and  _263
REMARK  109  A    between atoms: _268  and  _269
REMARK  110  A    between atoms: _271  and  _273
REMARK  111  A    between atoms: _273  and  _274
REMARK  112  A    between atoms: _277  and  _279
REMARK  113  A    between atoms: _279  and  _280
REMARK  114  A    between atoms: _279  and  _282
REMARK  115  A    between atoms: _282  and  _283
REMARK  116  A    between atoms: _293  and  _295
REMARK  117  A    between atoms: _295  and  _296
REMARK  118  A    between atoms: _295  and  _298
REMARK  119  A    between atoms: _298  and  _299
REMARK  120  A    between atoms: _299  and  _300
REMARK  121  A    between atoms: _300  and  _301
REMARK  122  A    between atoms: _301  and  _302
REMARK  123  A    between atoms: _306  and  _308
REMARK  124  A    between atoms: _308  and  _309
REMARK  125  A    between atoms: _308  and  _311
REMARK  126  A    between atoms: _311  and  _312
REMARK  127  A    between atoms: _322  and  _324
REMARK  128  A    between atoms: _324  and  _325
REMARK  129  A    between atoms: _324  and  _327
REMARK  130  A    between atoms: _327  and  _328
REMARK  131  A    between atoms: _331  and  _333
REMARK  132  A    between atoms: _333  and  _334
REMARK  133  A    between atoms: _333  and  _336
REMARK  134  A    between atoms: _336  and  _337
REMARK  135  A    between atoms: _340  and  _342
REMARK  136  A    between atoms: _342  and  _343
REMARK  137  A    between atoms: _345  and  _347
REMARK  138  A    between atoms: _347  and  _348
REMARK  139  A    between atoms: _347  and  _350
REMARK  140  A    between atoms: _350  and  _351
REMARK  141  A    between atoms: _361  and  _363
REMARK  142  A    between atoms: _363  and  _364
REMARK  143  A    between atoms: _366  and  _368
REMARK  144  A    between atoms: _368  and  _369
REMARK  145  A    between atoms: _368  and  _371
REMARK  146  A    between atoms: _371  and  _372
REMARK  147  A    between atoms: _375  and  _377
REMARK  148  A    between atoms: _377  and  _378
REMARK  149  A    between atoms: _377  and  _380
REMARK  150  A    between atoms: _380  and  _381
REMARK  151  A    between atoms: _386  and  _388
REMARK  152  A    between atoms: _388  and  _389
REMARK  153  A    between atoms: _388  and  _391
REMARK  154  A    between atoms: _391  and  _392
REMARK  155  A    between atoms: _397  and  _399
REMARK  156  A    between atoms: _399  and  _400
REMARK  157  A    between atoms: _399  and  _402
REMARK  158  A    between atoms: _402  and  _403
REMARK                            x       y       z     vdW  Elec       q    Type
REMARK                         _______ _______ _______ _____ _____    ______ ____
ROOT
ATOM      1  O   HOH     1      17.906   1.844  40.868  0.00  0.00    +0.000 OA
ENDROOT
TORSDOF 0
REMARK  Name = ../refined-set-2016/2epn/2epn_pocket.pdb
REMARK  158 active torsions:
REMARK  status: ('A' for Active; 'I' for Inactive)
REMARK    1  A    between atoms: _1  and  _3
REMARK    2  A    between atoms: _3  and  _4
REMARK    3  A    between atoms: _3  and  _6
REMARK    4  A    between atoms: _6  and  _7
REMARK    5  A    between atoms: _7  and  _8
REMARK    6  A    between atoms: _10  and  _12
REMARK    7  A    between atoms: _12  and  _13
REMARK    8  A    between atoms: _12  and  _15
REMARK    9  A    between atoms: _15  and  _16
REMARK   10  A    between atoms: _19  and  _21
REMARK   11  A    between atoms: _21  and  _22
REMARK   12  A    between atoms: _21  and  _24
REMARK   13  A    between atoms: _24  and  _25
REMARK   14  A    between atoms: _25  and  _26
REMARK   15  A    between atoms: _26  and  _27
REMARK   16  A    between atoms: _36  and  _38
REMARK   17  A    between atoms: _38  and  _39
REMARK   18  A    between atoms: _38  and  _41
REMARK   19  A    between atoms: _41  and  _42
REMARK   20  A    between atoms: _47  and  _48
REMARK   21  A    between atoms: _50  and  _52
REMARK   22  A    between atoms: _52  and  _53
REMARK   23  A    between atoms: _52  and  _55
REMARK   24  A    between atoms: _55  and  _56
REMARK   25  A    between atoms: _56  and  _57
REMARK   26  A    between atoms: _60  and  _62
REMARK   27  A    between atoms: _62  and  _63
REMARK   28  A    between atoms: _62  and  _65
REMARK   29  A    between atoms: _65  and  _66
REMARK   30  A    between atoms: _66  and  _67
REMARK   31  A    between atoms: _72  and  _74
REMARK   32  A    between atoms: _74  and  _75
REMARK   33  A    between atoms: _74  and  _77
REMARK   34  A    between atoms: _77  and  _78
REMARK   35  A    between atoms: _83  and  _85
REMARK   36  A    between atoms: _85  and  _86
REMARK   37  A    between atoms: _85  and  _88
REMARK   38  A    between atoms: _88  and  _89
REMARK   39  A    between atoms: _94  and  _96
REMARK   40  A    between atoms: _96  and  _97
REMARK   41  A    between atoms: _99  and  _101
REMARK   42  A    between atoms: _101  and  _102
REMARK   43  A    between atoms: _101  and  _104
REMARK   44  A    between atoms: _104  and  _105
REMARK   45  A    between atoms: _105  and  _106
REMARK   46  A    between atoms: _108  and  _110
REMARK   47  A    between atoms: _110  and  _111
REMARK   48  A    between atoms: _110  and  _113
REMARK   49  A    between atoms: _113  and  _114
REMARK   50  A    between atoms: _117  and  _119
REMARK   51  A    between atoms: _119  and  _120
REMARK   52  A    between atoms: _119  and  _122
REMARK   53  A    between atoms: _122  and  _123
REMARK   54  A    between atoms: _123  and  _124
REMARK   55  A    between atoms: _127  and  _129
REMARK   56  A    between atoms: _129  and  _130
REMARK   57  A    between atoms: _129  and  _132
REMARK   58  A    between atoms: _132  and  _133
REMARK   59  A    between atoms: _133  and  _134
REMARK   60  A    between atoms: _136  and  _138
REMARK   61  A    between atoms: _138  and  _139
REMARK   62  A    between atoms: _138  and  _141
REMARK   63  A    between atoms: _141  and  _142
REMARK   64  A    between atoms: _152  and  _154
REMARK   65  A    between atoms: _154  and  _155
REMARK   66  A    between atoms: _154  and  _157
REMARK   67  A    between atoms: _157  and  _158
REMARK   68  A    between atoms: _160  and  _162
REMARK   69  A    between atoms: _162  and  _163
REMARK   70  A    between atoms: _162  and  _165
REMARK   71  A    between atoms: _165  and  _166
REMARK   72  A    between atoms: _169  and  _171
REMARK   73  A    between atoms: _171  and  _172
REMARK   74  A    between atoms: _171  and  _174
REMARK   75  A    between atoms: _174  and  _175
REMARK   76  A    between atoms: _175  and  _176
REMARK   77  A    between atoms: _176  and  _177
REMARK   78  A    between atoms: _177  and  _178
REMARK   79  A    between atoms: _182  and  _184
REMARK   80  A    between atoms: _184  and  _185
REMARK   81  A    between atoms: _184  and  _187
REMARK   82  A    between atoms: _187  and  _188
REMARK   83  A    between atoms: _193  and  _194
REMARK   84  A    between atoms: _196  and  _198
REMARK   85  A    between atoms: _198  and  _199
REMARK   86  A    between atoms: _198  and  _201
REMARK   87  A    between atoms: _204  and  _206
REMARK   88  A    between atoms: _206  and  _207
REMARK   89  A    between atoms: _206  and  _209
REMARK   90  A    between atoms: _209  and  _210
REMARK   91  A    between atoms: _215  and  _216
REMARK   92  A    between atoms: _218  and  _220
REMARK   93  A    between atoms: _220  and  _221
REMARK   94  A    between atoms: _220  and  _223
REMARK   95  A    between atoms: _223  and  _224
REMARK   96  A    between atoms: _234  and  _236
REMARK   97  A    between atoms: _236  and  _237
REMARK   98  A    between atoms: _236  and  _239
REMARK   99  A    between atoms: _239  and  _240
REMARK  100  A    between atoms: _243  and  _245
REMARK  101  A    between atoms: _245  and  _246
REMARK  102  A    between atoms: _245  and  _248
REMARK  103  A    between atoms: _248  and  _249
REMARK  104  A    between atoms: _254  and  _255
REMARK  105  A    between atoms: _257  and  _259
REMARK  106  A    between atoms: _259  and  _260
REMARK  107  A    between atoms: _259  and  _262
REMARK  108  A    between atoms: _262  and  _263
REMARK  109  A    between atoms: _268  and  _269
REMARK  110  A    between atoms: _271  and  _273
REMARK  111  A    between atoms: _273  and  _274
REMARK  112  A    between atoms: _277  and  _279
REMARK  113  A    between atoms: _279  and  _280
REMARK  114  A    between atoms: _279  and  _282
REMARK  115  A    between atoms: _282  and  _283
REMARK  116  A    between atoms: _293  and  _295
REMARK  117  A    between atoms: _295  and  _296
REMARK  118  A    between atoms: _295  and  _298
REMARK  119  A    between atoms: _298  and  _299
REMARK  120  A    between atoms: _299  and  _300
REMARK  121  A    between atoms: _300  and  _301
REMARK  122  A    between atoms: _301  and  _302
REMARK  123  A    between atoms: _306  and  _308
REMARK  124  A    between atoms: _308  and  _309
REMARK  125  A    between atoms: _308  and  _311
REMARK  126  A    between atoms: _311  and  _312
REMARK  127  A    between atoms: _322  and  _324
REMARK  128  A    between atoms: _324  and  _325
REMARK  129  A    between atoms: _324  and  _327
REMARK  130  A    between atoms: _327  and  _328
REMARK  131  A    between atoms: _331  and  _333
REMARK  132  A    between atoms: _333  and  _334
REMARK  133  A    between atoms: _333  and  _336
REMARK  134  A    between atoms: _336  and  _337
REMARK  135  A    between atoms: _340  and  _342
REMARK  136  A    between atoms: _342  and  _343
REMARK  137  A    between atoms: _345  and  _347
REMARK  138  A    between atoms: _347  and  _348
REMARK  139  A    between atoms: _347  and  _350
REMARK  140  A    between atoms: _350  and  _351
REMARK  141  A    between atoms: _361  and  _363
REMARK  142  A    between atoms: _363  and  _364
REMARK  143  A    between atoms: _366  and  _368
REMARK  144  A    between atoms: _368  and  _369
REMARK  145  A    between atoms: _368  and  _371
REMARK  146  A    between atoms: _371  and  _372
REMARK  147  A    between atoms: _375  and  _377
REMARK  148  A    between atoms: _377  and  _378
REMARK  149  A    between atoms: _377  and  _380
REMARK  150  A    between atoms: _380  and  _381
REMARK  151  A    between atoms: _386  and  _388
REMARK  152  A    between atoms: _388  and  _389
REMARK  153  A    between atoms: _388  and  _391
REMARK  154  A    between atoms: _391  and  _392
REMARK  155  A    between atoms: _397  and  _399
REMARK  156  A    between atoms: _399  and  _400
REMARK  157  A    between atoms: _399  and  _402
REMARK  158  A    between atoms: _402  and  _403
REMARK                            x       y       z     vdW  Elec       q    Type
REMARK                         _______ _______ _______ _____ _____    ______ ____
ROOT
ATOM      1  O   HOH     1      32.301   2.275  38.255  0.00  0.00    +0.000 OA
ENDROOT
TORSDOF 0
REMARK  Name = ../refined-set-2016/2epn/2epn_pocket.pdb
REMARK  158 active torsions:
REMARK  status: ('A' for Active; 'I' for Inactive)
REMARK    1  A    between atoms: _1  and  _3
REMARK    2  A    between atoms: _3  and  _4
REMARK    3  A    between atoms: _3  and  _6
REMARK    4  A    between atoms: _6  and  _7
REMARK    5  A    between atoms: _7  and  _8
REMARK    6  A    between atoms: _10  and  _12
REMARK    7  A    between atoms: _12  and  _13
REMARK    8  A    between atoms: _12  and  _15
REMARK    9  A    between atoms: _15  and  _16
REMARK   10  A    between atoms: _19  and  _21
REMARK   11  A    between atoms: _21  and  _22
REMARK   12  A    between atoms: _21  and  _24
REMARK   13  A    between atoms: _24  and  _25
REMARK   14  A    between atoms: _25  and  _26
REMARK   15  A    between atoms: _26  and  _27
REMARK   16  A    between atoms: _36  and  _38
REMARK   17  A    between atoms: _38  and  _39
REMARK   18  A    between atoms: _38  and  _41
REMARK   19  A    between atoms: _41  and  _42
REMARK   20  A    between atoms: _47  and  _48
REMARK   21  A    between atoms: _50  and  _52
REMARK   22  A    between atoms: _52  and  _53
REMARK   23  A    between atoms: _52  and  _55
REMARK   24  A    between atoms: _55  and  _56
REMARK   25  A    between atoms: _56  and  _57
REMARK   26  A    between atoms: _60  and  _62
REMARK   27  A    between atoms: _62  and  _63
REMARK   28  A    between atoms: _62  and  _65
REMARK   29  A    between atoms: _65  and  _66
REMARK   30  A    between atoms: _66  and  _67
REMARK   31  A    between atoms: _72  and  _74
REMARK   32  A    between atoms: _74  and  _75
REMARK   33  A    between atoms: _74  and  _77
REMARK   34  A    between atoms: _77  and  _78
REMARK   35  A    between atoms: _83  and  _85
REMARK   36  A    between atoms: _85  and  _86
REMARK   37  A    between atoms: _85  and  _88
REMARK   38  A    between atoms: _88  and  _89
REMARK   39  A    between atoms: _94  and  _96
REMARK   40  A    between atoms: _96  and  _97
REMARK   41  A    between atoms: _99  and  _101
REMARK   42  A    between atoms: _101  and  _102
REMARK   43  A    between atoms: _101  and  _104
REMARK   44  A    between atoms: _104  and  _105
REMARK   45  A    between atoms: _105  and  _106
REMARK   46  A    between atoms: _108  and  _110
REMARK   47  A    between atoms: _110  and  _111
REMARK   48  A    between atoms: _110  and  _113
REMARK   49  A    between atoms: _113  and  _114
REMARK   50  A    between atoms: _117  and  _119
REMARK   51  A    between atoms: _119  and  _120
REMARK   52  A    between atoms: _119  and  _122
REMARK   53  A    between atoms: _122  and  _123
REMARK   54  A    between atoms: _123  and  _124
REMARK   55  A    between atoms: _127  and  _129
REMARK   56  A    between atoms: _129  and  _130
REMARK   57  A    between atoms: _129  and  _132
REMARK   58  A    between atoms: _132  and  _133
REMARK   59  A    between atoms: _133  and  _134
REMARK   60  A    between atoms: _136  and  _138
REMARK   61  A    between atoms: _138  and  _139
REMARK   62  A    between atoms: _138  and  _141
REMARK   63  A    between atoms: _141  and  _142
REMARK   64  A    between atoms: _152  and  _154
REMARK   65  A    between atoms: _154  and  _155
REMARK   66  A    between atoms: _154  and  _157
REMARK   67  A    between atoms: _157  and  _158
REMARK   68  A    between atoms: _160  and  _162
REMARK   69  A    between atoms: _162  and  _163
REMARK   70  A    between atoms: _162  and  _165
REMARK   71  A    between atoms: _165  and  _166
REMARK   72  A    between atoms: _169  and  _171
REMARK   73  A    between atoms: _171  and  _172
REMARK   74  A    between atoms: _171  and  _174
REMARK   75  A    between atoms: _174  and  _175
REMARK   76  A    between atoms: _175  and  _176
REMARK   77  A    between atoms: _176  and  _177
REMARK   78  A    between atoms: _177  and  _178
REMARK   79  A    between atoms: _182  and  _184
REMARK   80  A    between atoms: _184  and  _185
REMARK   81  A    between atoms: _184  and  _187
REMARK   82  A    between atoms: _187  and  _188
REMARK   83  A    between atoms: _193  and  _194
REMARK   84  A    between atoms: _196  and  _198
REMARK   85  A    between atoms: _198  and  _199
REMARK   86  A    between atoms: _198  and  _201
REMARK   87  A    between atoms: _204  and  _206
REMARK   88  A    between atoms: _206  and  _207
REMARK   89  A    between atoms: _206  and  _209
REMARK   90  A    between atoms: _209  and  _210
REMARK   91  A    between atoms: _215  and  _216
REMARK   92  A    between atoms: _218  and  _220
REMARK   93  A    between atoms: _220  and  _221
REMARK   94  A    between atoms: _220  and  _223
REMARK   95  A    between atoms: _223  and  _224
REMARK   96  A    between atoms: _234  and  _236
REMARK   97  A    between atoms: _236  and  _237
REMARK   98  A    between atoms: _236  and  _239
REMARK   99  A    between atoms: _239  and  _240
REMARK  100  A    between atoms: _243  and  _245
REMARK  101  A    between atoms: _245  and  _246
REMARK  102  A    between atoms: _245  and  _248
REMARK  103  A    between atoms: _248  and  _249
REMARK  104  A    between atoms: _254  and  _255
REMARK  105  A    between atoms: _257  and  _259
REMARK  106  A    between atoms: _259  and  _260
REMARK  107  A    between atoms: _259  and  _262
REMARK  108  A    between atoms: _262  and  _263
REMARK  109  A    between atoms: _268  and  _269
REMARK  110  A    between atoms: _271  and  _273
REMARK  111  A    between atoms: _273  and  _274
REMARK  112  A    between atoms: _277  and  _279
REMARK  113  A    between atoms: _279  and  _280
REMARK  114  A    between atoms: _279  and  _282
REMARK  115  A    between atoms: _282  and  _283
REMARK  116  A    between atoms: _293  and  _295
REMARK  117  A    between atoms: _295  and  _296
REMARK  118  A    between atoms: _295  and  _298
REMARK  119  A    between atoms: _298  and  _299
REMARK  120  A    between atoms: _299  and  _300
REMARK  121  A    between atoms: _300  and  _301
REMARK  122  A    between atoms: _301  and  _302
REMARK  123  A    between atoms: _306  and  _308
REMARK  124  A    between atoms: _308  and  _309
REMARK  125  A    between atoms: _308  and  _311
REMARK  126  A    between atoms: _311  and  _312
REMARK  127  A    between atoms: _322  and  _324
REMARK  128  A    between atoms: _324  and  _325
REMARK  129  A    between atoms: _324  and  _327
REMARK  130  A    between atoms: _327  and  _328
REMARK  131  A    between atoms: _331  and  _333
REMARK  132  A    between atoms: _333  and  _334
REMARK  133  A    between atoms: _333  and  _336
REMARK  134  A    between atoms: _336  and  _337
REMARK  135  A    between atoms: _340  and  _342
REMARK  136  A    between atoms: _342  and  _343
REMARK  137  A    between atoms: _345  and  _347
REMARK  138  A    between atoms: _347  and  _348
REMARK  139  A    between atoms: _347  and  _350
REMARK  140  A    between atoms: _350  and  _351
REMARK  141  A    between atoms: _361  and  _363
REMARK  142  A    between atoms: _363  and  _364
REMARK  143  A    between atoms: _366  and  _368
REMARK  144  A    between atoms: _368  and  _369
REMARK  145  A    between atoms: _368  and  _371
REMARK  146  A    between atoms: _371  and  _372
REMARK  147  A    between atoms: _375  and  _377
REMARK  148  A    between atoms: _377  and  _378
REMARK  149  A    between atoms: _377  and  _380
REMARK  150  A    between atoms: _380  and  _381
REMARK  151  A    between atoms: _386  and  _388
REMARK  152  A    between atoms: _388  and  _389
REMARK  153  A    between atoms: _388  and  _391
REMARK  154  A    between atoms: _391  and  _392
REMARK  155  A    between atoms: _397  and  _399
REMARK  156  A    between atoms: _399  and  _400
REMARK  157  A    between atoms: _399  and  _402
REMARK  158  A    between atoms: _402  and  _403
REMARK                            x       y       z     vdW  Elec       q    Type
REMARK                         _______ _______ _______ _____ _____    ______ ____
ROOT
ATOM      1  O   HOH     1      28.193  -3.045  39.649  0.00  0.00    +0.000 OA
ENDROOT
TORSDOF 0
REMARK  Name = ../refined-set-2016/2epn/2epn_pocket.pdb
REMARK  158 active torsions:
REMARK  status: ('A' for Active; 'I' for Inactive)
REMARK    1  A    between atoms: _1  and  _3
REMARK    2  A    between atoms: _3  and  _4
REMARK    3  A    between atoms: _3  and  _6
REMARK    4  A    between atoms: _6  and  _7
REMARK    5  A    between atoms: _7  and  _8
REMARK    6  A    between atoms: _10  and  _12
REMARK    7  A    between atoms: _12  and  _13
REMARK    8  A    between atoms: _12  and  _15
REMARK    9  A    between atoms: _15  and  _16
REMARK   10  A    between atoms: _19  and  _21
REMARK   11  A    between atoms: _21  and  _22
REMARK   12  A    between atoms: _21  and  _24
REMARK   13  A    between atoms: _24  and  _25
REMARK   14  A    between atoms: _25  and  _26
REMARK   15  A    between atoms: _26  and  _27
REMARK   16  A    between atoms: _36  and  _38
REMARK   17  A    between atoms: _38  and  _39
REMARK   18  A    between atoms: _38  and  _41
REMARK   19  A    between atoms: _41  and  _42
REMARK   20  A    between atoms: _47  and  _48
REMARK   21  A    between atoms: _50  and  _52
REMARK   22  A    between atoms: _52  and  _53
REMARK   23  A    between atoms: _52  and  _55
REMARK   24  A    between atoms: _55  and  _56
REMARK   25  A    between atoms: _56  and  _57
REMARK   26  A    between atoms: _60  and  _62
REMARK   27  A    between atoms: _62  and  _63
REMARK   28  A    between atoms: _62  and  _65
REMARK   29  A    between atoms: _65  and  _66
REMARK   30  A    between atoms: _66  and  _67
REMARK   31  A    between atoms: _72  and  _74
REMARK   32  A    between atoms: _74  and  _75
REMARK   33  A    between atoms: _74  and  _77
REMARK   34  A    between atoms: _77  and  _78
REMARK   35  A    between atoms: _83  and  _85
REMARK   36  A    between atoms: _85  and  _86
REMARK   37  A    between atoms: _85  and  _88
REMARK   38  A    between atoms: _88  and  _89
REMARK   39  A    between atoms: _94  and  _96
REMARK   40  A    between atoms: _96  and  _97
REMARK   41  A    between atoms: _99  and  _101
REMARK   42  A    between atoms: _101  and  _102
REMARK   43  A    between atoms: _101  and  _104
REMARK   44  A    between atoms: _104  and  _105
REMARK   45  A    between atoms: _105  and  _106
REMARK   46  A    between atoms: _108  and  _110
REMARK   47  A    between atoms: _110  and  _111
REMARK   48  A    between atoms: _110  and  _113
REMARK   49  A    between atoms: _113  and  _114
REMARK   50  A    between atoms: _117  and  _119
REMARK   51  A    between atoms: _119  and  _120
REMARK   52  A    between atoms: _119  and  _122
REMARK   53  A    between atoms: _122  and  _123
REMARK   54  A    between atoms: _123  and  _124
REMARK   55  A    between atoms: _127  and  _129
REMARK   56  A    between atoms: _129  and  _130
REMARK   57  A    between atoms: _129  and  _132
REMARK   58  A    between atoms: _132  and  _133
REMARK   59  A    between atoms: _133  and  _134
REMARK   60  A    between atoms: _136  and  _138
REMARK   61  A    between atoms: _138  and  _139
REMARK   62  A    between atoms: _138  and  _141
REMARK   63  A    between atoms: _141  and  _142
REMARK   64  A    between atoms: _152  and  _154
REMARK   65  A    between atoms: _154  and  _155
REMARK   66  A    between atoms: _154  and  _157
REMARK   67  A    between atoms: _157  and  _158
REMARK   68  A    between atoms: _160  and  _162
REMARK   69  A    between atoms: _162  and  _163
REMARK   70  A    between atoms: _162  and  _165
REMARK   71  A    between atoms: _165  and  _166
REMARK   72  A    between atoms: _169  and  _171
REMARK   73  A    between atoms: _171  and  _172
REMARK   74  A    between atoms: _171  and  _174
REMARK   75  A    between atoms: _174  and  _175
REMARK   76  A    between atoms: _175  and  _176
REMARK   77  A    between atoms: _176  and  _177
REMARK   78  A    between atoms: _177  and  _178
REMARK   79  A    between atoms: _182  and  _184
REMARK   80  A    between atoms: _184  and  _185
REMARK   81  A    between atoms: _184  and  _187
REMARK   82  A    between atoms: _187  and  _188
REMARK   83  A    between atoms: _193  and  _194
REMARK   84  A    between atoms: _196  and  _198
REMARK   85  A    between atoms: _198  and  _199
REMARK   86  A    between atoms: _198  and  _201
REMARK   87  A    between atoms: _204  and  _206
REMARK   88  A    between atoms: _206  and  _207
REMARK   89  A    between atoms: _206  and  _209
REMARK   90  A    between atoms: _209  and  _210
REMARK   91  A    between atoms: _215  and  _216
REMARK   92  A    between atoms: _218  and  _220
REMARK   93  A    between atoms: _220  and  _221
REMARK   94  A    between atoms: _220  and  _223
REMARK   95  A    between atoms: _223  and  _224
REMARK   96  A    between atoms: _234  and  _236
REMARK   97  A    between atoms: _236  and  _237
REMARK   98  A    between atoms: _236  and  _239
REMARK   99  A    between atoms: _239  and  _240
REMARK  100  A    between atoms: _243  and  _245
REMARK  101  A    between atoms: _245  and  _246
REMARK  102  A    between atoms: _245  and  _248
REMARK  103  A    between atoms: _248  and  _249
REMARK  104  A    between atoms: _254  and  _255
REMARK  105  A    between atoms: _257  and  _259
REMARK  106  A    between atoms: _259  and  _260
REMARK  107  A    between atoms: _259  and  _262
REMARK  108  A    between atoms: _262  and  _263
REMARK  109  A    between atoms: _268  and  _269
REMARK  110  A    between atoms: _271  and  _273
REMARK  111  A    between atoms: _273  and  _274
REMARK  112  A    between atoms: _277  and  _279
REMARK  113  A    between atoms: _279  and  _280
REMARK  114  A    between atoms: _279  and  _282
REMARK  115  A    between atoms: _282  and  _283
REMARK  116  A    between atoms: _293  and  _295
REMARK  117  A    between atoms: _295  and  _296
REMARK  118  A    between atoms: _295  and  _298
REMARK  119  A    between atoms: _298  and  _299
REMARK  120  A    between atoms: _299  and  _300
REMARK  121  A    between atoms: _300  and  _301
REMARK  122  A    between atoms: _301  and  _302
REMARK  123  A    between atoms: _306  and  _308
REMARK  124  A    between atoms: _308  and  _309
REMARK  125  A    between atoms: _308  and  _311
REMARK  126  A    between atoms: _311  and  _312
REMARK  127  A    between atoms: _322  and  _324
REMARK  128  A    between atoms: _324  and  _325
REMARK  129  A    between atoms: _324  and  _327
REMARK  130  A    between atoms: _327  and  _328
REMARK  131  A    between atoms: _331  and  _333
REMARK  132  A    between atoms: _333  and  _334
REMARK  133  A    between atoms: _333  and  _336
REMARK  134  A    between atoms: _336  and  _337
REMARK  135  A    between atoms: _340  and  _342
REMARK  136  A    between atoms: _342  and  _343
REMARK  137  A    between atoms: _345  and  _347
REMARK  138  A    between atoms: _347  and  _348
REMARK  139  A    between atoms: _347  and  _350
REMARK  140  A    between atoms: _350  and  _351
REMARK  141  A    between atoms: _361  and  _363
REMARK  142  A    between atoms: _363  and  _364
REMARK  143  A    between atoms: _366  and  _368
REMARK  144  A    between atoms: _368  and  _369
REMARK  145  A    between atoms: _368  and  _371
REMARK  146  A    between atoms: _371  and  _372
REMARK  147  A    between atoms: _375  and  _377
REMARK  148  A    between atoms: _377  and  _378
REMARK  149  A    between atoms: _377  and  _380
REMARK  150  A    between atoms: _380  and  _381
REMARK  151  A    between atoms: _386  and  _388
REMARK  152  A    between atoms: _388  and  _389
REMARK  153  A    between atoms: _388  and  _391
REMARK  154  A    between atoms: _391  and  _392
REMARK  155  A    between atoms: _397  and  _399
REMARK  156  A    between atoms: _399  and  _400
REMARK  157  A    between atoms: _399  and  _402
REMARK  158  A    between atoms: _402  and  _403
REMARK                            x       y       z     vdW  Elec       q    Type
REMARK                         _______ _______ _______ _____ _____    ______ ____
ROOT
ATOM      1  O   HOH     1      30.936   9.435  33.930  0.00  0.00    +0.000 OA
ENDROOT
TORSDOF 0
REMARK  Name = ../refined-set-2016/2epn/2epn_pocket.pdb
REMARK  158 active torsions:
REMARK  status: ('A' for Active; 'I' for Inactive)
REMARK    1  A    between atoms: _1  and  _3
REMARK    2  A    between atoms: _3  and  _4
REMARK    3  A    between atoms: _3  and  _6
REMARK    4  A    between atoms: _6  and  _7
REMARK    5  A    between atoms: _7  and  _8
REMARK    6  A    between atoms: _10  and  _12
REMARK    7  A    between atoms: _12  and  _13
REMARK    8  A    between atoms: _12  and  _15
REMARK    9  A    between atoms: _15  and  _16
REMARK   10  A    between atoms: _19  and  _21
REMARK   11  A    between atoms: _21  and  _22
REMARK   12  A    between atoms: _21  and  _24
REMARK   13  A    between atoms: _24  and  _25
REMARK   14  A    between atoms: _25  and  _26
REMARK   15  A    between atoms: _26  and  _27
REMARK   16  A    between atoms: _36  and  _38
REMARK   17  A    between atoms: _38  and  _39
REMARK   18  A    between atoms: _38  and  _41
REMARK   19  A    between atoms: _41  and  _42
REMARK   20  A    between atoms: _47  and  _48
REMARK   21  A    between atoms: _50  and  _52
REMARK   22  A    between atoms: _52  and  _53
REMARK   23  A    between atoms: _52  and  _55
REMARK   24  A    between atoms: _55  and  _56
REMARK   25  A    between atoms: _56  and  _57
REMARK   26  A    between atoms: _60  and  _62
REMARK   27  A    between atoms: _62  and  _63
REMARK   28  A    between atoms: _62  and  _65
REMARK   29  A    between atoms: _65  and  _66
REMARK   30  A    between atoms: _66  and  _67
REMARK   31  A    between atoms: _72  and  _74
REMARK   32  A    between atoms: _74  and  _75
REMARK   33  A    between atoms: _74  and  _77
REMARK   34  A    between atoms: _77  and  _78
REMARK   35  A    between atoms: _83  and  _85
REMARK   36  A    between atoms: _85  and  _86
REMARK   37  A    between atoms: _85  and  _88
REMARK   38  A    between atoms: _88  and  _89
REMARK   39  A    between atoms: _94  and  _96
REMARK   40  A    between atoms: _96  and  _97
REMARK   41  A    between atoms: _99  and  _101
REMARK   42  A    between atoms: _101  and  _102
REMARK   43  A    between atoms: _101  and  _104
REMARK   44  A    between atoms: _104  and  _105
REMARK   45  A    between atoms: _105  and  _106
REMARK   46  A    between atoms: _108  and  _110
REMARK   47  A    between atoms: _110  and  _111
REMARK   48  A    between atoms: _110  and  _113
REMARK   49  A    between atoms: _113  and  _114
REMARK   50  A    between atoms: _117  and  _119
REMARK   51  A    between atoms: _119  and  _120
REMARK   52  A    between atoms: _119  and  _122
REMARK   53  A    between atoms: _122  and  _123
REMARK   54  A    between atoms: _123  and  _124
REMARK   55  A    between atoms: _127  and  _129
REMARK   56  A    between atoms: _129  and  _130
REMARK   57  A    between atoms: _129  and  _132
REMARK   58  A    between atoms: _132  and  _133
REMARK   59  A    between atoms: _133  and  _134
REMARK   60  A    between atoms: _136  and  _138
REMARK   61  A    between atoms: _138  and  _139
REMARK   62  A    between atoms: _138  and  _141
REMARK   63  A    between atoms: _141  and  _142
REMARK   64  A    between atoms: _152  and  _154
REMARK   65  A    between atoms: _154  and  _155
REMARK   66  A    between atoms: _154  and  _157
REMARK   67  A    between atoms: _157  and  _158
REMARK   68  A    between atoms: _160  and  _162
REMARK   69  A    between atoms: _162  and  _163
REMARK   70  A    between atoms: _162  and  _165
REMARK   71  A    between atoms: _165  and  _166
REMARK   72  A    between atoms: _169  and  _171
REMARK   73  A    between atoms: _171  and  _172
REMARK   74  A    between atoms: _171  and  _174
REMARK   75  A    between atoms: _174  and  _175
REMARK   76  A    between atoms: _175  and  _176
REMARK   77  A    between atoms: _176  and  _177
REMARK   78  A    between atoms: _177  and  _178
REMARK   79  A    between atoms: _182  and  _184
REMARK   80  A    between atoms: _184  and  _185
REMARK   81  A    between atoms: _184  and  _187
REMARK   82  A    between atoms: _187  and  _188
REMARK   83  A    between atoms: _193  and  _194
REMARK   84  A    between atoms: _196  and  _198
REMARK   85  A    between atoms: _198  and  _199
REMARK   86  A    between atoms: _198  and  _201
REMARK   87  A    between atoms: _204  and  _206
REMARK   88  A    between atoms: _206  and  _207
REMARK   89  A    between atoms: _206  and  _209
REMARK   90  A    between atoms: _209  and  _210
REMARK   91  A    between atoms: _215  and  _216
REMARK   92  A    between atoms: _218  and  _220
REMARK   93  A    between atoms: _220  and  _221
REMARK   94  A    between atoms: _220  and  _223
REMARK   95  A    between atoms: _223  and  _224
REMARK   96  A    between atoms: _234  and  _236
REMARK   97  A    between atoms: _236  and  _237
REMARK   98  A    between atoms: _236  and  _239
REMARK   99  A    between atoms: _239  and  _240
REMARK  100  A    between atoms: _243  and  _245
REMARK  101  A    between atoms: _245  and  _246
REMARK  102  A    between atoms: _245  and  _248
REMARK  103  A    between atoms: _248  and  _249
REMARK  104  A    between atoms: _254  and  _255
REMARK  105  A    between atoms: _257  and  _259
REMARK  106  A    between atoms: _259  and  _260
REMARK  107  A    between atoms: _259  and  _262
REMARK  108  A    between atoms: _262  and  _263
REMARK  109  A    between atoms: _268  and  _269
REMARK  110  A    between atoms: _271  and  _273
REMARK  111  A    between atoms: _273  and  _274
REMARK  112  A    between atoms: _277  and  _279
REMARK  113  A    between atoms: _279  and  _280
REMARK  114  A    between atoms: _279  and  _282
REMARK  115  A    between atoms: _282  and  _283
REMARK  116  A    between atoms: _293  and  _295
REMARK  117  A    between atoms: _295  and  _296
REMARK  118  A    between atoms: _295  and  _298
REMARK  119  A    between atoms: _298  and  _299
REMARK  120  A    between atoms: _299  and  _300
REMARK  121  A    between atoms: _300  and  _301
REMARK  122  A    between atoms: _301  and  _302
REMARK  123  A    between atoms: _306  and  _308
REMARK  124  A    between atoms: _308  and  _309
REMARK  125  A    between atoms: _308  and  _311
REMARK  126  A    between atoms: _311  and  _312
REMARK  127  A    between atoms: _322  and  _324
REMARK  128  A    between atoms: _324  and  _325
REMARK  129  A    between atoms: _324  and  _327
REMARK  130  A    between atoms: _327  and  _328
REMARK  131  A    between atoms: _331  and  _333
REMARK  132  A    between atoms: _333  and  _334
REMARK  133  A    between atoms: _333  and  _336
REMARK  134  A    between atoms: _336  and  _337
REMARK  135  A    between atoms: _340  and  _342
REMARK  136  A    between atoms: _342  and  _343
REMARK  137  A    between atoms: _345  and  _347
REMARK  138  A    between atoms: _347  and  _348
REMARK  139  A    between atoms: _347  and  _350
REMARK  140  A    between atoms: _350  and  _351
REMARK  141  A    between atoms: _361  and  _363
REMARK  142  A    between atoms: _363  and  _364
REMARK  143  A    between atoms: _366  and  _368
REMARK  144  A    between atoms: _368  and  _369
REMARK  145  A    between atoms: _368  and  _371
REMARK  146  A    between atoms: _371  and  _372
REMARK  147  A    between atoms: _375  and  _377
REMARK  148  A    between atoms: _377  and  _378
REMARK  149  A    between atoms: _377  and  _380
REMARK  150  A    between atoms: _380  and  _381
REMARK  151  A    between atoms: _386  and  _388
REMARK  152  A    between atoms: _388  and  _389
REMARK  153  A    between atoms: _388  and  _391
REMARK  154  A    between atoms: _391  and  _392
REMARK  155  A    between atoms: _397  and  _399
REMARK  156  A    between atoms: _399  and  _400
REMARK  157  A    between atoms: _399  and  _402
REMARK  158  A    between atoms: _402  and  _403
REMARK                            x       y       z     vdW  Elec       q    Type
REMARK                         _______ _______ _______ _____ _____    ______ ____
ROOT
ATOM      1  O   HOH     1      19.180   5.504  37.687  0.00  0.00    +0.000 OA
ENDROOT
TORSDOF 0
REMARK  Name = ../refined-set-2016/2epn/2epn_pocket.pdb
REMARK  158 active torsions:
REMARK  status: ('A' for Active; 'I' for Inactive)
REMARK    1  A    between atoms: _1  and  _3
REMARK    2  A    between atoms: _3  and  _4
REMARK    3  A    between atoms: _3  and  _6
REMARK    4  A    between atoms: _6  and  _7
REMARK    5  A    between atoms: _7  and  _8
REMARK    6  A    between atoms: _10  and  _12
REMARK    7  A    between atoms: _12  and  _13
REMARK    8  A    between atoms: _12  and  _15
REMARK    9  A    between atoms: _15  and  _16
REMARK   10  A    between atoms: _19  and  _21
REMARK   11  A    between atoms: _21  and  _22
REMARK   12  A    between atoms: _21  and  _24
REMARK   13  A    between atoms: _24  and  _25
REMARK   14  A    between atoms: _25  and  _26
REMARK   15  A    between atoms: _26  and  _27
REMARK   16  A    between atoms: _36  and  _38
REMARK   17  A    between atoms: _38  and  _39
REMARK   18  A    between atoms: _38  and  _41
REMARK   19  A    between atoms: _41  and  _42
REMARK   20  A    between atoms: _47  and  _48
REMARK   21  A    between atoms: _50  and  _52
REMARK   22  A    between atoms: _52  and  _53
REMARK   23  A    between atoms: _52  and  _55
REMARK   24  A    between atoms: _55  and  _56
REMARK   25  A    between atoms: _56  and  _57
REMARK   26  A    between atoms: _60  and  _62
REMARK   27  A    between atoms: _62  and  _63
REMARK   28  A    between atoms: _62  and  _65
REMARK   29  A    between atoms: _65  and  _66
REMARK   30  A    between atoms: _66  and  _67
REMARK   31  A    between atoms: _72  and  _74
REMARK   32  A    between atoms: _74  and  _75
REMARK   33  A    between atoms: _74  and  _77
REMARK   34  A    between atoms: _77  and  _78
REMARK   35  A    between atoms: _83  and  _85
REMARK   36  A    between atoms: _85  and  _86
REMARK   37  A    between atoms: _85  and  _88
REMARK   38  A    between atoms: _88  and  _89
REMARK   39  A    between atoms: _94  and  _96
REMARK   40  A    between atoms: _96  and  _97
REMARK   41  A    between atoms: _99  and  _101
REMARK   42  A    between atoms: _101  and  _102
REMARK   43  A    between atoms: _101  and  _104
REMARK   44  A    between atoms: _104  and  _105
REMARK   45  A    between atoms: _105  and  _106
REMARK   46  A    between atoms: _108  and  _110
REMARK   47  A    between atoms: _110  and  _111
REMARK   48  A    between atoms: _110  and  _113
REMARK   49  A    between atoms: _113  and  _114
REMARK   50  A    between atoms: _117  and  _119
REMARK   51  A    between atoms: _119  and  _120
REMARK   52  A    between atoms: _119  and  _122
REMARK   53  A    between atoms: _122  and  _123
REMARK   54  A    between atoms: _123  and  _124
REMARK   55  A    between atoms: _127  and  _129
REMARK   56  A    between atoms: _129  and  _130
REMARK   57  A    between atoms: _129  and  _132
REMARK   58  A    between atoms: _132  and  _133
REMARK   59  A    between atoms: _133  and  _134
REMARK   60  A    between atoms: _136  and  _138
REMARK   61  A    between atoms: _138  and  _139
REMARK   62  A    between atoms: _138  and  _141
REMARK   63  A    between atoms: _141  and  _142
REMARK   64  A    between atoms: _152  and  _154
REMARK   65  A    between atoms: _154  and  _155
REMARK   66  A    between atoms: _154  and  _157
REMARK   67  A    between atoms: _157  and  _158
REMARK   68  A    between atoms: _160  and  _162
REMARK   69  A    between atoms: _162  and  _163
REMARK   70  A    between atoms: _162  and  _165
REMARK   71  A    between atoms: _165  and  _166
REMARK   72  A    between atoms: _169  and  _171
REMARK   73  A    between atoms: _171  and  _172
REMARK   74  A    between atoms: _171  and  _174
REMARK   75  A    between atoms: _174  and  _175
REMARK   76  A    between atoms: _175  and  _176
REMARK   77  A    between atoms: _176  and  _177
REMARK   78  A    between atoms: _177  and  _178
REMARK   79  A    between atoms: _182  and  _184
REMARK   80  A    between atoms: _184  and  _185
REMARK   81  A    between atoms: _184  and  _187
REMARK   82  A    between atoms: _187  and  _188
REMARK   83  A    between atoms: _193  and  _194
REMARK   84  A    between atoms: _196  and  _198
REMARK   85  A    between atoms: _198  and  _199
REMARK   86  A    between atoms: _198  and  _201
REMARK   87  A    between atoms: _204  and  _206
REMARK   88  A    between atoms: _206  and  _207
REMARK   89  A    between atoms: _206  and  _209
REMARK   90  A    between atoms: _209  and  _210
REMARK   91  A    between atoms: _215  and  _216
REMARK   92  A    between atoms: _218  and  _220
REMARK   93  A    between atoms: _220  and  _221
REMARK   94  A    between atoms: _220  and  _223
REMARK   95  A    between atoms: _223  and  _224
REMARK   96  A    between atoms: _234  and  _236
REMARK   97  A    between atoms: _236  and  _237
REMARK   98  A    between atoms: _236  and  _239
REMARK   99  A    between atoms: _239  and  _240
REMARK  100  A    between atoms: _243  and  _245
REMARK  101  A    between atoms: _245  and  _246
REMARK  102  A    between atoms: _245  and  _248
REMARK  103  A    between atoms: _248  and  _249
REMARK  104  A    between atoms: _254  and  _255
REMARK  105  A    between atoms: _257  and  _259
REMARK  106  A    between atoms: _259  and  _260
REMARK  107  A    between atoms: _259  and  _262
REMARK  108  A    between atoms: _262  and  _263
REMARK  109  A    between atoms: _268  and  _269
REMARK  110  A    between atoms: _271  and  _273
REMARK  111  A    between atoms: _273  and  _274
REMARK  112  A    between atoms: _277  and  _279
REMARK  113  A    between atoms: _279  and  _280
REMARK  114  A    between atoms: _279  and  _282
REMARK  115  A    between atoms: _282  and  _283
REMARK  116  A    between atoms: _293  and  _295
REMARK  117  A    between atoms: _295  and  _296
REMARK  118  A    between atoms: _295  and  _298
REMARK  119  A    between atoms: _298  and  _299
REMARK  120  A    between atoms: _299  and  _300
REMARK  121  A    between atoms: _300  and  _301
REMARK  122  A    between atoms: _301  and  _302
REMARK  123  A    between atoms: _306  and  _308
REMARK  124  A    between atoms: _308  and  _309
REMARK  125  A    between atoms: _308  and  _311
REMARK  126  A    between atoms: _311  and  _312
REMARK  127  A    between atoms: _322  and  _324
REMARK  128  A    between atoms: _324  and  _325
REMARK  129  A    between atoms: _324  and  _327
REMARK  130  A    between atoms: _327  and  _328
REMARK  131  A    between atoms: _331  and  _333
REMARK  132  A    between atoms: _333  and  _334
REMARK  133  A    between atoms: _333  and  _336
REMARK  134  A    between atoms: _336  and  _337
REMARK  135  A    between atoms: _340  and  _342
REMARK  136  A    between atoms: _342  and  _343
REMARK  137  A    between atoms: _345  and  _347
REMARK  138  A    between atoms: _347  and  _348
REMARK  139  A    between atoms: _347  and  _350
REMARK  140  A    between atoms: _350  and  _351
REMARK  141  A    between atoms: _361  and  _363
REMARK  142  A    between atoms: _363  and  _364
REMARK  143  A    between atoms: _366  and  _368
REMARK  144  A    between atoms: _368  and  _369
REMARK  145  A    between atoms: _368  and  _371
REMARK  146  A    between atoms: _371  and  _372
REMARK  147  A    between atoms: _375  and  _377
REMARK  148  A    between atoms: _377  and  _378
REMARK  149  A    between atoms: _377  and  _380
REMARK  150  A    between atoms: _380  and  _381
REMARK  151  A    between atoms: _386  and  _388
REMARK  152  A    between atoms: _388  and  _389
REMARK  153  A    between atoms: _388  and  _391
REMARK  154  A    between atoms: _391  and  _392
REMARK  155  A    between atoms: _397  and  _399
REMARK  156  A    between atoms: _399  and  _400
REMARK  157  A    between atoms: _399  and  _402
REMARK  158  A    between atoms: _402  and  _403
REMARK                            x       y       z     vdW  Elec       q    Type
REMARK                         _______ _______ _______ _____ _____    ______ ____
ROOT
ATOM      1  O   HOH     1      31.670   4.316  45.188  0.00  0.00    +0.000 OA
ENDROOT
TORSDOF 0
REMARK  Name = ../refined-set-2016/2epn/2epn_pocket.pdb
REMARK  158 active torsions:
REMARK  status: ('A' for Active; 'I' for Inactive)
REMARK    1  A    between atoms: _1  and  _3
REMARK    2  A    between atoms: _3  and  _4
REMARK    3  A    between atoms: _3  and  _6
REMARK    4  A    between atoms: _6  and  _7
REMARK    5  A    between atoms: _7  and  _8
REMARK    6  A    between atoms: _10  and  _12
REMARK    7  A    between atoms: _12  and  _13
REMARK    8  A    between atoms: _12  and  _15
REMARK    9  A    between atoms: _15  and  _16
REMARK   10  A    between atoms: _19  and  _21
REMARK   11  A    between atoms: _21  and  _22
REMARK   12  A    between atoms: _21  and  _24
REMARK   13  A    between atoms: _24  and  _25
REMARK   14  A    between atoms: _25  and  _26
REMARK   15  A    between atoms: _26  and  _27
REMARK   16  A    between atoms: _36  and  _38
REMARK   17  A    between atoms: _38  and  _39
REMARK   18  A    between atoms: _38  and  _41
REMARK   19  A    between atoms: _41  and  _42
REMARK   20  A    between atoms: _47  and  _48
REMARK   21  A    between atoms: _50  and  _52
REMARK   22  A    between atoms: _52  and  _53
REMARK   23  A    between atoms: _52  and  _55
REMARK   24  A    between atoms: _55  and  _56
REMARK   25  A    between atoms: _56  and  _57
REMARK   26  A    between atoms: _60  and  _62
REMARK   27  A    between atoms: _62  and  _63
REMARK   28  A    between atoms: _62  and  _65
REMARK   29  A    between atoms: _65  and  _66
REMARK   30  A    between atoms: _66  and  _67
REMARK   31  A    between atoms: _72  and  _74
REMARK   32  A    between atoms: _74  and  _75
REMARK   33  A    between atoms: _74  and  _77
REMARK   34  A    between atoms: _77  and  _78
REMARK   35  A    between atoms: _83  and  _85
REMARK   36  A    between atoms: _85  and  _86
REMARK   37  A    between atoms: _85  and  _88
REMARK   38  A    between atoms: _88  and  _89
REMARK   39  A    between atoms: _94  and  _96
REMARK   40  A    between atoms: _96  and  _97
REMARK   41  A    between atoms: _99  and  _101
REMARK   42  A    between atoms: _101  and  _102
REMARK   43  A    between atoms: _101  and  _104
REMARK   44  A    between atoms: _104  and  _105
REMARK   45  A    between atoms: _105  and  _106
REMARK   46  A    between atoms: _108  and  _110
REMARK   47  A    between atoms: _110  and  _111
REMARK   48  A    between atoms: _110  and  _113
REMARK   49  A    between atoms: _113  and  _114
REMARK   50  A    between atoms: _117  and  _119
REMARK   51  A    between atoms: _119  and  _120
REMARK   52  A    between atoms: _119  and  _122
REMARK   53  A    between atoms: _122  and  _123
REMARK   54  A    between atoms: _123  and  _124
REMARK   55  A    between atoms: _127  and  _129
REMARK   56  A    between atoms: _129  and  _130
REMARK   57  A    between atoms: _129  and  _132
REMARK   58  A    between atoms: _132  and  _133
REMARK   59  A    between atoms: _133  and  _134
REMARK   60  A    between atoms: _136  and  _138
REMARK   61  A    between atoms: _138  and  _139
REMARK   62  A    between atoms: _138  and  _141
REMARK   63  A    between atoms: _141  and  _142
REMARK   64  A    between atoms: _152  and  _154
REMARK   65  A    between atoms: _154  and  _155
REMARK   66  A    between atoms: _154  and  _157
REMARK   67  A    between atoms: _157  and  _158
REMARK   68  A    between atoms: _160  and  _162
REMARK   69  A    between atoms: _162  and  _163
REMARK   70  A    between atoms: _162  and  _165
REMARK   71  A    between atoms: _165  and  _166
REMARK   72  A    between atoms: _169  and  _171
REMARK   73  A    between atoms: _171  and  _172
REMARK   74  A    between atoms: _171  and  _174
REMARK   75  A    between atoms: _174  and  _175
REMARK   76  A    between atoms: _175  and  _176
REMARK   77  A    between atoms: _176  and  _177
REMARK   78  A    between atoms: _177  and  _178
REMARK   79  A    between atoms: _182  and  _184
REMARK   80  A    between atoms: _184  and  _185
REMARK   81  A    between atoms: _184  and  _187
REMARK   82  A    between atoms: _187  and  _188
REMARK   83  A    between atoms: _193  and  _194
REMARK   84  A    between atoms: _196  and  _198
REMARK   85  A    between atoms: _198  and  _199
REMARK   86  A    between atoms: _198  and  _201
REMARK   87  A    between atoms: _204  and  _206
REMARK   88  A    between atoms: _206  and  _207
REMARK   89  A    between atoms: _206  and  _209
REMARK   90  A    between atoms: _209  and  _210
REMARK   91  A    between atoms: _215  and  _216
REMARK   92  A    between atoms: _218  and  _220
REMARK   93  A    between atoms: _220  and  _221
REMARK   94  A    between atoms: _220  and  _223
REMARK   95  A    between atoms: _223  and  _224
REMARK   96  A    between atoms: _234  and  _236
REMARK   97  A    between atoms: _236  and  _237
REMARK   98  A    between atoms: _236  and  _239
REMARK   99  A    between atoms: _239  and  _240
REMARK  100  A    between atoms: _243  and  _245
REMARK  101  A    between atoms: _245  and  _246
REMARK  102  A    between atoms: _245  and  _248
REMARK  103  A    between atoms: _248  and  _249
REMARK  104  A    between atoms: _254  and  _255
REMARK  105  A    between atoms: _257  and  _259
REMARK  106  A    between atoms: _259  and  _260
REMARK  107  A    between atoms: _259  and  _262
REMARK  108  A    between atoms: _262  and  _263
REMARK  109  A    between atoms: _268  and  _269
REMARK  110  A    between atoms: _271  and  _273
REMARK  111  A    between atoms: _273  and  _274
REMARK  112  A    between atoms: _277  and  _279
REMARK  113  A    between atoms: _279  and  _280
REMARK  114  A    between atoms: _279  and  _282
REMARK  115  A    between atoms: _282  and  _283
REMARK  116  A    between atoms: _293  and  _295
REMARK  117  A    between atoms: _295  and  _296
REMARK  118  A    between atoms: _295  and  _298
REMARK  119  A    between atoms: _298  and  _299
REMARK  120  A    between atoms: _299  and  _300
REMARK  121  A    between atoms: _300  and  _301
REMARK  122  A    between atoms: _301  and  _302
REMARK  123  A    between atoms: _306  and  _308
REMARK  124  A    between atoms: _308  and  _309
REMARK  125  A    between atoms: _308  and  _311
REMARK  126  A    between atoms: _311  and  _312
REMARK  127  A    between atoms: _322  and  _324
REMARK  128  A    between atoms: _324  and  _325
REMARK  129  A    between atoms: _324  and  _327
REMARK  130  A    between atoms: _327  and  _328
REMARK  131  A    between atoms: _331  and  _333
REMARK  132  A    between atoms: _333  and  _334
REMARK  133  A    between atoms: _333  and  _336
REMARK  134  A    between atoms: _336  and  _337
REMARK  135  A    between atoms: _340  and  _342
REMARK  136  A    between atoms: _342  and  _343
REMARK  137  A    between atoms: _345  and  _347
REMARK  138  A    between atoms: _347  and  _348
REMARK  139  A    between atoms: _347  and  _350
REMARK  140  A    between atoms: _350  and  _351
REMARK  141  A    between atoms: _361  and  _363
REMARK  142  A    between atoms: _363  and  _364
REMARK  143  A    between atoms: _366  and  _368
REMARK  144  A    between atoms: _368  and  _369
REMARK  145  A    between atoms: _368  and  _371
REMARK  146  A    between atoms: _371  and  _372
REMARK  147  A    between atoms: _375  and  _377
REMARK  148  A    between atoms: _377  and  _378
REMARK  149  A    between atoms: _377  and  _380
REMARK  150  A    between atoms: _380  and  _381
REMARK  151  A    between atoms: _386  and  _388
REMARK  152  A    between atoms: _388  and  _389
REMARK  153  A    between atoms: _388  and  _391
REMARK  154  A    between atoms: _391  and  _392
REMARK  155  A    between atoms: _397  and  _399
REMARK  156  A    between atoms: _399  and  _400
REMARK  157  A    between atoms: _399  and  _402
REMARK  158  A    between atoms: _402  and  _403
REMARK                            x       y       z     vdW  Elec       q    Type
REMARK                         _______ _______ _______ _____ _____    ______ ____
ROOT
ATOM      1  O   HOH     1      19.010   9.549  39.273  0.00  0.00    +0.000 OA
ENDROOT
TORSDOF 0
REMARK  Name = ../refined-set-2016/2epn/2epn_pocket.pdb
REMARK  158 active torsions:
REMARK  status: ('A' for Active; 'I' for Inactive)
REMARK    1  A    between atoms: _1  and  _3
REMARK    2  A    between atoms: _3  and  _4
REMARK    3  A    between atoms: _3  and  _6
REMARK    4  A    between atoms: _6  and  _7
REMARK    5  A    between atoms: _7  and  _8
REMARK    6  A    between atoms: _10  and  _12
REMARK    7  A    between atoms: _12  and  _13
REMARK    8  A    between atoms: _12  and  _15
REMARK    9  A    between atoms: _15  and  _16
REMARK   10  A    between atoms: _19  and  _21
REMARK   11  A    between atoms: _21  and  _22
REMARK   12  A    between atoms: _21  and  _24
REMARK   13  A    between atoms: _24  and  _25
REMARK   14  A    between atoms: _25  and  _26
REMARK   15  A    between atoms: _26  and  _27
REMARK   16  A    between atoms: _36  and  _38
REMARK   17  A    between atoms: _38  and  _39
REMARK   18  A    between atoms: _38  and  _41
REMARK   19  A    between atoms: _41  and  _42
REMARK   20  A    between atoms: _47  and  _48
REMARK   21  A    between atoms: _50  and  _52
REMARK   22  A    between atoms: _52  and  _53
REMARK   23  A    between atoms: _52  and  _55
REMARK   24  A    between atoms: _55  and  _56
REMARK   25  A    between atoms: _56  and  _57
REMARK   26  A    between atoms: _60  and  _62
REMARK   27  A    between atoms: _62  and  _63
REMARK   28  A    between atoms: _62  and  _65
REMARK   29  A    between atoms: _65  and  _66
REMARK   30  A    between atoms: _66  and  _67
REMARK   31  A    between atoms: _72  and  _74
REMARK   32  A    between atoms: _74  and  _75
REMARK   33  A    between atoms: _74  and  _77
REMARK   34  A    between atoms: _77  and  _78
REMARK   35  A    between atoms: _83  and  _85
REMARK   36  A    between atoms: _85  and  _86
REMARK   37  A    between atoms: _85  and  _88
REMARK   38  A    between atoms: _88  and  _89
REMARK   39  A    between atoms: _94  and  _96
REMARK   40  A    between atoms: _96  and  _97
REMARK   41  A    between atoms: _99  and  _101
REMARK   42  A    between atoms: _101  and  _102
REMARK   43  A    between atoms: _101  and  _104
REMARK   44  A    between atoms: _104  and  _105
REMARK   45  A    between atoms: _105  and  _106
REMARK   46  A    between atoms: _108  and  _110
REMARK   47  A    between atoms: _110  and  _111
REMARK   48  A    between atoms: _110  and  _113
REMARK   49  A    between atoms: _113  and  _114
REMARK   50  A    between atoms: _117  and  _119
REMARK   51  A    between atoms: _119  and  _120
REMARK   52  A    between atoms: _119  and  _122
REMARK   53  A    between atoms: _122  and  _123
REMARK   54  A    between atoms: _123  and  _124
REMARK   55  A    between atoms: _127  and  _129
REMARK   56  A    between atoms: _129  and  _130
REMARK   57  A    between atoms: _129  and  _132
REMARK   58  A    between atoms: _132  and  _133
REMARK   59  A    between atoms: _133  and  _134
REMARK   60  A    between atoms: _136  and  _138
REMARK   61  A    between atoms: _138  and  _139
REMARK   62  A    between atoms: _138  and  _141
REMARK   63  A    between atoms: _141  and  _142
REMARK   64  A    between atoms: _152  and  _154
REMARK   65  A    between atoms: _154  and  _155
REMARK   66  A    between atoms: _154  and  _157
REMARK   67  A    between atoms: _157  and  _158
REMARK   68  A    between atoms: _160  and  _162
REMARK   69  A    between atoms: _162  and  _163
REMARK   70  A    between atoms: _162  and  _165
REMARK   71  A    between atoms: _165  and  _166
REMARK   72  A    between atoms: _169  and  _171
REMARK   73  A    between atoms: _171  and  _172
REMARK   74  A    between atoms: _171  and  _174
REMARK   75  A    between atoms: _174  and  _175
REMARK   76  A    between atoms: _175  and  _176
REMARK   77  A    between atoms: _176  and  _177
REMARK   78  A    between atoms: _177  and  _178
REMARK   79  A    between atoms: _182  and  _184
REMARK   80  A    between atoms: _184  and  _185
REMARK   81  A    between atoms: _184  and  _187
REMARK   82  A    between atoms: _187  and  _188
REMARK   83  A    between atoms: _193  and  _194
REMARK   84  A    between atoms: _196  and  _198
REMARK   85  A    between atoms: _198  and  _199
REMARK   86  A    between atoms: _198  and  _201
REMARK   87  A    between atoms: _204  and  _206
REMARK   88  A    between atoms: _206  and  _207
REMARK   89  A    between atoms: _206  and  _209
REMARK   90  A    between atoms: _209  and  _210
REMARK   91  A    between atoms: _215  and  _216
REMARK   92  A    between atoms: _218  and  _220
REMARK   93  A    between atoms: _220  and  _221
REMARK   94  A    between atoms: _220  and  _223
REMARK   95  A    between atoms: _223  and  _224
REMARK   96  A    between atoms: _234  and  _236
REMARK   97  A    between atoms: _236  and  _237
REMARK   98  A    between atoms: _236  and  _239
REMARK   99  A    between atoms: _239  and  _240
REMARK  100  A    between atoms: _243  and  _245
REMARK  101  A    between atoms: _245  and  _246
REMARK  102  A    between atoms: _245  and  _248
REMARK  103  A    between atoms: _248  and  _249
REMARK  104  A    between atoms: _254  and  _255
REMARK  105  A    between atoms: _257  and  _259
REMARK  106  A    between atoms: _259  and  _260
REMARK  107  A    between atoms: _259  and  _262
REMARK  108  A    between atoms: _262  and  _263
REMARK  109  A    between atoms: _268  and  _269
REMARK  110  A    between atoms: _271  and  _273
REMARK  111  A    between atoms: _273  and  _274
REMARK  112  A    between atoms: _277  and  _279
REMARK  113  A    between atoms: _279  and  _280
REMARK  114  A    between atoms: _279  and  _282
REMARK  115  A    between atoms: _282  and  _283
REMARK  116  A    between atoms: _293  and  _295
REMARK  117  A    between atoms: _295  and  _296
REMARK  118  A    between atoms: _295  and  _298
REMARK  119  A    between atoms: _298  and  _299
REMARK  120  A    between atoms: _299  and  _300
REMARK  121  A    between atoms: _300  and  _301
REMARK  122  A    between atoms: _301  and  _302
REMARK  123  A    between atoms: _306  and  _308
REMARK  124  A    between atoms: _308  and  _309
REMARK  125  A    between atoms: _308  and  _311
REMARK  126  A    between atoms: _311  and  _312
REMARK  127  A    between atoms: _322  and  _324
REMARK  128  A    between atoms: _324  and  _325
REMARK  129  A    between atoms: _324  and  _327
REMARK  130  A    between atoms: _327  and  _328
REMARK  131  A    between atoms: _331  and  _333
REMARK  132  A    between atoms: _333  and  _334
REMARK  133  A    between atoms: _333  and  _336
REMARK  134  A    between atoms: _336  and  _337
REMARK  135  A    between atoms: _340  and  _342
REMARK  136  A    between atoms: _342  and  _343
REMARK  137  A    between atoms: _345  and  _347
REMARK  138  A    between atoms: _347  and  _348
REMARK  139  A    between atoms: _347  and  _350
REMARK  140  A    between atoms: _350  and  _351
REMARK  141  A    between atoms: _361  and  _363
REMARK  142  A    between atoms: _363  and  _364
REMARK  143  A    between atoms: _366  and  _368
REMARK  144  A    between atoms: _368  and  _369
REMARK  145  A    between atoms: _368  and  _371
REMARK  146  A    between atoms: _371  and  _372
REMARK  147  A    between atoms: _375  and  _377
REMARK  148  A    between atoms: _377  and  _378
REMARK  149  A    between atoms: _377  and  _380
REMARK  150  A    between atoms: _380  and  _381
REMARK  151  A    between atoms: _386  and  _388
REMARK  152  A    between atoms: _388  and  _389
REMARK  153  A    between atoms: _388  and  _391
REMARK  154  A    between atoms: _391  and  _392
REMARK  155  A    between atoms: _397  and  _399
REMARK  156  A    between atoms: _399  and  _400
REMARK  157  A    between atoms: _399  and  _402
REMARK  158  A    between atoms: _402  and  _403
REMARK                            x       y       z     vdW  Elec       q    Type
REMARK                         _______ _______ _______ _____ _____    ______ ____
ROOT
ATOM      1  O   HOH     1      32.840  10.535  35.591  0.00  0.00    +0.000 OA
ENDROOT
TORSDOF 0
REMARK  Name = ../refined-set-2016/2epn/2epn_pocket.pdb
REMARK  158 active torsions:
REMARK  status: ('A' for Active; 'I' for Inactive)
REMARK    1  A    between atoms: _1  and  _3
REMARK    2  A    between atoms: _3  and  _4
REMARK    3  A    between atoms: _3  and  _6
REMARK    4  A    between atoms: _6  and  _7
REMARK    5  A    between atoms: _7  and  _8
REMARK    6  A    between atoms: _10  and  _12
REMARK    7  A    between atoms: _12  and  _13
REMARK    8  A    between atoms: _12  and  _15
REMARK    9  A    between atoms: _15  and  _16
REMARK   10  A    between atoms: _19  and  _21
REMARK   11  A    between atoms: _21  and  _22
REMARK   12  A    between atoms: _21  and  _24
REMARK   13  A    between atoms: _24  and  _25
REMARK   14  A    between atoms: _25  and  _26
REMARK   15  A    between atoms: _26  and  _27
REMARK   16  A    between atoms: _36  and  _38
REMARK   17  A    between atoms: _38  and  _39
REMARK   18  A    between atoms: _38  and  _41
REMARK   19  A    between atoms: _41  and  _42
REMARK   20  A    between atoms: _47  and  _48
REMARK   21  A    between atoms: _50  and  _52
REMARK   22  A    between atoms: _52  and  _53
REMARK   23  A    between atoms: _52  and  _55
REMARK   24  A    between atoms: _55  and  _56
REMARK   25  A    between atoms: _56  and  _57
REMARK   26  A    between atoms: _60  and  _62
REMARK   27  A    between atoms: _62  and  _63
REMARK   28  A    between atoms: _62  and  _65
REMARK   29  A    between atoms: _65  and  _66
REMARK   30  A    between atoms: _66  and  _67
REMARK   31  A    between atoms: _72  and  _74
REMARK   32  A    between atoms: _74  and  _75
REMARK   33  A    between atoms: _74  and  _77
REMARK   34  A    between atoms: _77  and  _78
REMARK   35  A    between atoms: _83  and  _85
REMARK   36  A    between atoms: _85  and  _86
REMARK   37  A    between atoms: _85  and  _88
REMARK   38  A    between atoms: _88  and  _89
REMARK   39  A    between atoms: _94  and  _96
REMARK   40  A    between atoms: _96  and  _97
REMARK   41  A    between atoms: _99  and  _101
REMARK   42  A    between atoms: _101  and  _102
REMARK   43  A    between atoms: _101  and  _104
REMARK   44  A    between atoms: _104  and  _105
REMARK   45  A    between atoms: _105  and  _106
REMARK   46  A    between atoms: _108  and  _110
REMARK   47  A    between atoms: _110  and  _111
REMARK   48  A    between atoms: _110  and  _113
REMARK   49  A    between atoms: _113  and  _114
REMARK   50  A    between atoms: _117  and  _119
REMARK   51  A    between atoms: _119  and  _120
REMARK   52  A    between atoms: _119  and  _122
REMARK   53  A    between atoms: _122  and  _123
REMARK   54  A    between atoms: _123  and  _124
REMARK   55  A    between atoms: _127  and  _129
REMARK   56  A    between atoms: _129  and  _130
REMARK   57  A    between atoms: _129  and  _132
REMARK   58  A    between atoms: _132  and  _133
REMARK   59  A    between atoms: _133  and  _134
REMARK   60  A    between atoms: _136  and  _138
REMARK   61  A    between atoms: _138  and  _139
REMARK   62  A    between atoms: _138  and  _141
REMARK   63  A    between atoms: _141  and  _142
REMARK   64  A    between atoms: _152  and  _154
REMARK   65  A    between atoms: _154  and  _155
REMARK   66  A    between atoms: _154  and  _157
REMARK   67  A    between atoms: _157  and  _158
REMARK   68  A    between atoms: _160  and  _162
REMARK   69  A    between atoms: _162  and  _163
REMARK   70  A    between atoms: _162  and  _165
REMARK   71  A    between atoms: _165  and  _166
REMARK   72  A    between atoms: _169  and  _171
REMARK   73  A    between atoms: _171  and  _172
REMARK   74  A    between atoms: _171  and  _174
REMARK   75  A    between atoms: _174  and  _175
REMARK   76  A    between atoms: _175  and  _176
REMARK   77  A    between atoms: _176  and  _177
REMARK   78  A    between atoms: _177  and  _178
REMARK   79  A    between atoms: _182  and  _184
REMARK   80  A    between atoms: _184  and  _185
REMARK   81  A    between atoms: _184  and  _187
REMARK   82  A    between atoms: _187  and  _188
REMARK   83  A    between atoms: _193  and  _194
REMARK   84  A    between atoms: _196  and  _198
REMARK   85  A    between atoms: _198  and  _199
REMARK   86  A    between atoms: _198  and  _201
REMARK   87  A    between atoms: _204  and  _206
REMARK   88  A    between atoms: _206  and  _207
REMARK   89  A    between atoms: _206  and  _209
REMARK   90  A    between atoms: _209  and  _210
REMARK   91  A    between atoms: _215  and  _216
REMARK   92  A    between atoms: _218  and  _220
REMARK   93  A    between atoms: _220  and  _221
REMARK   94  A    between atoms: _220  and  _223
REMARK   95  A    between atoms: _223  and  _224
REMARK   96  A    between atoms: _234  and  _236
REMARK   97  A    between atoms: _236  and  _237
REMARK   98  A    between atoms: _236  and  _239
REMARK   99  A    between atoms: _239  and  _240
REMARK  100  A    between atoms: _243  and  _245
REMARK  101  A    between atoms: _245  and  _246
REMARK  102  A    between atoms: _245  and  _248
REMARK  103  A    between atoms: _248  and  _249
REMARK  104  A    between atoms: _254  and  _255
REMARK  105  A    between atoms: _257  and  _259
REMARK  106  A    between atoms: _259  and  _260
REMARK  107  A    between atoms: _259  and  _262
REMARK  108  A    between atoms: _262  and  _263
REMARK  109  A    between atoms: _268  and  _269
REMARK  110  A    between atoms: _271  and  _273
REMARK  111  A    between atoms: _273  and  _274
REMARK  112  A    between atoms: _277  and  _279
REMARK  113  A    between atoms: _279  and  _280
REMARK  114  A    between atoms: _279  and  _282
REMARK  115  A    between atoms: _282  and  _283
REMARK  116  A    between atoms: _293  and  _295
REMARK  117  A    between atoms: _295  and  _296
REMARK  118  A    between atoms: _295  and  _298
REMARK  119  A    between atoms: _298  and  _299
REMARK  120  A    between atoms: _299  and  _300
REMARK  121  A    between atoms: _300  and  _301
REMARK  122  A    between atoms: _301  and  _302
REMARK  123  A    between atoms: _306  and  _308
REMARK  124  A    between atoms: _308  and  _309
REMARK  125  A    between atoms: _308  and  _311
REMARK  126  A    between atoms: _311  and  _312
REMARK  127  A    between atoms: _322  and  _324
REMARK  128  A    between atoms: _324  and  _325
REMARK  129  A    between atoms: _324  and  _327
REMARK  130  A    between atoms: _327  and  _328
REMARK  131  A    between atoms: _331  and  _333
REMARK  132  A    between atoms: _333  and  _334
REMARK  133  A    between atoms: _333  and  _336
REMARK  134  A    between atoms: _336  and  _337
REMARK  135  A    between atoms: _340  and  _342
REMARK  136  A    between atoms: _342  and  _343
REMARK  137  A    between atoms: _345  and  _347
REMARK  138  A    between atoms: _347  and  _348
REMARK  139  A    between atoms: _347  and  _350
REMARK  140  A    between atoms: _350  and  _351
REMARK  141  A    between atoms: _361  and  _363
REMARK  142  A    between atoms: _363  and  _364
REMARK  143  A    between atoms: _366  and  _368
REMARK  144  A    between atoms: _368  and  _369
REMARK  145  A    between atoms: _368  and  _371
REMARK  146  A    between atoms: _371  and  _372
REMARK  147  A    between atoms: _375  and  _377
REMARK  148  A    between atoms: _377  and  _378
REMARK  149  A    between atoms: _377  and  _380
REMARK  150  A    between atoms: _380  and  _381
REMARK  151  A    between atoms: _386  and  _388
REMARK  152  A    between atoms: _388  and  _389
REMARK  153  A    between atoms: _388  and  _391
REMARK  154  A    between atoms: _391  and  _392
REMARK  155  A    between atoms: _397  and  _399
REMARK  156  A    between atoms: _399  and  _400
REMARK  157  A    between atoms: _399  and  _402
REMARK  158  A    between atoms: _402  and  _403
REMARK                            x       y       z     vdW  Elec       q    Type
REMARK                         _______ _______ _______ _____ _____    ______ ____
ROOT
ATOM      1  O   HOH     1      30.663  10.675  37.417  0.00  0.00    +0.000 OA
ENDROOT
TORSDOF 0
REMARK  Name = ../refined-set-2016/2epn/2epn_pocket.pdb
REMARK  158 active torsions:
REMARK  status: ('A' for Active; 'I' for Inactive)
REMARK    1  A    between atoms: _1  and  _3
REMARK    2  A    between atoms: _3  and  _4
REMARK    3  A    between atoms: _3  and  _6
REMARK    4  A    between atoms: _6  and  _7
REMARK    5  A    between atoms: _7  and  _8
REMARK    6  A    between atoms: _10  and  _12
REMARK    7  A    between atoms: _12  and  _13
REMARK    8  A    between atoms: _12  and  _15
REMARK    9  A    between atoms: _15  and  _16
REMARK   10  A    between atoms: _19  and  _21
REMARK   11  A    between atoms: _21  and  _22
REMARK   12  A    between atoms: _21  and  _24
REMARK   13  A    between atoms: _24  and  _25
REMARK   14  A    between atoms: _25  and  _26
REMARK   15  A    between atoms: _26  and  _27
REMARK   16  A    between atoms: _36  and  _38
REMARK   17  A    between atoms: _38  and  _39
REMARK   18  A    between atoms: _38  and  _41
REMARK   19  A    between atoms: _41  and  _42
REMARK   20  A    between atoms: _47  and  _48
REMARK   21  A    between atoms: _50  and  _52
REMARK   22  A    between atoms: _52  and  _53
REMARK   23  A    between atoms: _52  and  _55
REMARK   24  A    between atoms: _55  and  _56
REMARK   25  A    between atoms: _56  and  _57
REMARK   26  A    between atoms: _60  and  _62
REMARK   27  A    between atoms: _62  and  _63
REMARK   28  A    between atoms: _62  and  _65
REMARK   29  A    between atoms: _65  and  _66
REMARK   30  A    between atoms: _66  and  _67
REMARK   31  A    between atoms: _72  and  _74
REMARK   32  A    between atoms: _74  and  _75
REMARK   33  A    between atoms: _74  and  _77
REMARK   34  A    between atoms: _77  and  _78
REMARK   35  A    between atoms: _83  and  _85
REMARK   36  A    between atoms: _85  and  _86
REMARK   37  A    between atoms: _85  and  _88
REMARK   38  A    between atoms: _88  and  _89
REMARK   39  A    between atoms: _94  and  _96
REMARK   40  A    between atoms: _96  and  _97
REMARK   41  A    between atoms: _99  and  _101
REMARK   42  A    between atoms: _101  and  _102
REMARK   43  A    between atoms: _101  and  _104
REMARK   44  A    between atoms: _104  and  _105
REMARK   45  A    between atoms: _105  and  _106
REMARK   46  A    between atoms: _108  and  _110
REMARK   47  A    between atoms: _110  and  _111
REMARK   48  A    between atoms: _110  and  _113
REMARK   49  A    between atoms: _113  and  _114
REMARK   50  A    between atoms: _117  and  _119
REMARK   51  A    between atoms: _119  and  _120
REMARK   52  A    between atoms: _119  and  _122
REMARK   53  A    between atoms: _122  and  _123
REMARK   54  A    between atoms: _123  and  _124
REMARK   55  A    between atoms: _127  and  _129
REMARK   56  A    between atoms: _129  and  _130
REMARK   57  A    between atoms: _129  and  _132
REMARK   58  A    between atoms: _132  and  _133
REMARK   59  A    between atoms: _133  and  _134
REMARK   60  A    between atoms: _136  and  _138
REMARK   61  A    between atoms: _138  and  _139
REMARK   62  A    between atoms: _138  and  _141
REMARK   63  A    between atoms: _141  and  _142
REMARK   64  A    between atoms: _152  and  _154
REMARK   65  A    between atoms: _154  and  _155
REMARK   66  A    between atoms: _154  and  _157
REMARK   67  A    between atoms: _157  and  _158
REMARK   68  A    between atoms: _160  and  _162
REMARK   69  A    between atoms: _162  and  _163
REMARK   70  A    between atoms: _162  and  _165
REMARK   71  A    between atoms: _165  and  _166
REMARK   72  A    between atoms: _169  and  _171
REMARK   73  A    between atoms: _171  and  _172
REMARK   74  A    between atoms: _171  and  _174
REMARK   75  A    between atoms: _174  and  _175
REMARK   76  A    between atoms: _175  and  _176
REMARK   77  A    between atoms: _176  and  _177
REMARK   78  A    between atoms: _177  and  _178
REMARK   79  A    between atoms: _182  and  _184
REMARK   80  A    between atoms: _184  and  _185
REMARK   81  A    between atoms: _184  and  _187
REMARK   82  A    between atoms: _187  and  _188
REMARK   83  A    between atoms: _193  and  _194
REMARK   84  A    between atoms: _196  and  _198
REMARK   85  A    between atoms: _198  and  _199
REMARK   86  A    between atoms: _198  and  _201
REMARK   87  A    between atoms: _204  and  _206
REMARK   88  A    between atoms: _206  and  _207
REMARK   89  A    between atoms: _206  and  _209
REMARK   90  A    between atoms: _209  and  _210
REMARK   91  A    between atoms: _215  and  _216
REMARK   92  A    between atoms: _218  and  _220
REMARK   93  A    between atoms: _220  and  _221
REMARK   94  A    between atoms: _220  and  _223
REMARK   95  A    between atoms: _223  and  _224
REMARK   96  A    between atoms: _234  and  _236
REMARK   97  A    between atoms: _236  and  _237
REMARK   98  A    between atoms: _236  and  _239
REMARK   99  A    between atoms: _239  and  _240
REMARK  100  A    between atoms: _243  and  _245
REMARK  101  A    between atoms: _245  and  _246
REMARK  102  A    between atoms: _245  and  _248
REMARK  103  A    between atoms: _248  and  _249
REMARK  104  A    between atoms: _254  and  _255
REMARK  105  A    between atoms: _257  and  _259
REMARK  106  A    between atoms: _259  and  _260
REMARK  107  A    between atoms: _259  and  _262
REMARK  108  A    between atoms: _262  and  _263
REMARK  109  A    between atoms: _268  and  _269
REMARK  110  A    between atoms: _271  and  _273
REMARK  111  A    between atoms: _273  and  _274
REMARK  112  A    between atoms: _277  and  _279
REMARK  113  A    between atoms: _279  and  _280
REMARK  114  A    between atoms: _279  and  _282
REMARK  115  A    between atoms: _282  and  _283
REMARK  116  A    between atoms: _293  and  _295
REMARK  117  A    between atoms: _295  and  _296
REMARK  118  A    between atoms: _295  and  _298
REMARK  119  A    between atoms: _298  and  _299
REMARK  120  A    between atoms: _299  and  _300
REMARK  121  A    between atoms: _300  and  _301
REMARK  122  A    between atoms: _301  and  _302
REMARK  123  A    between atoms: _306  and  _308
REMARK  124  A    between atoms: _308  and  _309
REMARK  125  A    between atoms: _308  and  _311
REMARK  126  A    between atoms: _311  and  _312
REMARK  127  A    between atoms: _322  and  _324
REMARK  128  A    between atoms: _324  and  _325
REMARK  129  A    between atoms: _324  and  _327
REMARK  130  A    between atoms: _327  and  _328
REMARK  131  A    between atoms: _331  and  _333
REMARK  132  A    between atoms: _333  and  _334
REMARK  133  A    between atoms: _333  and  _336
REMARK  134  A    between atoms: _336  and  _337
REMARK  135  A    between atoms: _340  and  _342
REMARK  136  A    between atoms: _342  and  _343
REMARK  137  A    between atoms: _345  and  _347
REMARK  138  A    between atoms: _347  and  _348
REMARK  139  A    between atoms: _347  and  _350
REMARK  140  A    between atoms: _350  and  _351
REMARK  141  A    between atoms: _361  and  _363
REMARK  142  A    between atoms: _363  and  _364
REMARK  143  A    between atoms: _366  and  _368
REMARK  144  A    between atoms: _368  and  _369
REMARK  145  A    between atoms: _368  and  _371
REMARK  146  A    between atoms: _371  and  _372
REMARK  147  A    between atoms: _375  and  _377
REMARK  148  A    between atoms: _377  and  _378
REMARK  149  A    between atoms: _377  and  _380
REMARK  150  A    between atoms: _380  and  _381
REMARK  151  A    between atoms: _386  and  _388
REMARK  152  A    between atoms: _388  and  _389
REMARK  153  A    between atoms: _388  and  _391
REMARK  154  A    between atoms: _391  and  _392
REMARK  155  A    between atoms: _397  and  _399
REMARK  156  A    between atoms: _399  and  _400
REMARK  157  A    between atoms: _399  and  _402
REMARK  158  A    between atoms: _402  and  _403
REMARK                            x       y       z     vdW  Elec       q    Type
REMARK                         _______ _______ _______ _____ _____    ______ ____
ROOT
ATOM      1  O   HOH     1      29.281   6.036  34.266  0.00  0.00    +0.000 OA
ENDROOT
TORSDOF 0
REMARK  Name = ../refined-set-2016/2epn/2epn_pocket.pdb
REMARK  158 active torsions:
REMARK  status: ('A' for Active; 'I' for Inactive)
REMARK    1  A    between atoms: _1  and  _3
REMARK    2  A    between atoms: _3  and  _4
REMARK    3  A    between atoms: _3  and  _6
REMARK    4  A    between atoms: _6  and  _7
REMARK    5  A    between atoms: _7  and  _8
REMARK    6  A    between atoms: _10  and  _12
REMARK    7  A    between atoms: _12  and  _13
REMARK    8  A    between atoms: _12  and  _15
REMARK    9  A    between atoms: _15  and  _16
REMARK   10  A    between atoms: _19  and  _21
REMARK   11  A    between atoms: _21  and  _22
REMARK   12  A    between atoms: _21  and  _24
REMARK   13  A    between atoms: _24  and  _25
REMARK   14  A    between atoms: _25  and  _26
REMARK   15  A    between atoms: _26  and  _27
REMARK   16  A    between atoms: _36  and  _38
REMARK   17  A    between atoms: _38  and  _39
REMARK   18  A    between atoms: _38  and  _41
REMARK   19  A    between atoms: _41  and  _42
REMARK   20  A    between atoms: _47  and  _48
REMARK   21  A    between atoms: _50  and  _52
REMARK   22  A    between atoms: _52  and  _53
REMARK   23  A    between atoms: _52  and  _55
REMARK   24  A    between atoms: _55  and  _56
REMARK   25  A    between atoms: _56  and  _57
REMARK   26  A    between atoms: _60  and  _62
REMARK   27  A    between atoms: _62  and  _63
REMARK   28  A    between atoms: _62  and  _65
REMARK   29  A    between atoms: _65  and  _66
REMARK   30  A    between atoms: _66  and  _67
REMARK   31  A    between atoms: _72  and  _74
REMARK   32  A    between atoms: _74  and  _75
REMARK   33  A    between atoms: _74  and  _77
REMARK   34  A    between atoms: _77  and  _78
REMARK   35  A    between atoms: _83  and  _85
REMARK   36  A    between atoms: _85  and  _86
REMARK   37  A    between atoms: _85  and  _88
REMARK   38  A    between atoms: _88  and  _89
REMARK   39  A    between atoms: _94  and  _96
REMARK   40  A    between atoms: _96  and  _97
REMARK   41  A    between atoms: _99  and  _101
REMARK   42  A    between atoms: _101  and  _102
REMARK   43  A    between atoms: _101  and  _104
REMARK   44  A    between atoms: _104  and  _105
REMARK   45  A    between atoms: _105  and  _106
REMARK   46  A    between atoms: _108  and  _110
REMARK   47  A    between atoms: _110  and  _111
REMARK   48  A    between atoms: _110  and  _113
REMARK   49  A    between atoms: _113  and  _114
REMARK   50  A    between atoms: _117  and  _119
REMARK   51  A    between atoms: _119  and  _120
REMARK   52  A    between atoms: _119  and  _122
REMARK   53  A    between atoms: _122  and  _123
REMARK   54  A    between atoms: _123  and  _124
REMARK   55  A    between atoms: _127  and  _129
REMARK   56  A    between atoms: _129  and  _130
REMARK   57  A    between atoms: _129  and  _132
REMARK   58  A    between atoms: _132  and  _133
REMARK   59  A    between atoms: _133  and  _134
REMARK   60  A    between atoms: _136  and  _138
REMARK   61  A    between atoms: _138  and  _139
REMARK   62  A    between atoms: _138  and  _141
REMARK   63  A    between atoms: _141  and  _142
REMARK   64  A    between atoms: _152  and  _154
REMARK   65  A    between atoms: _154  and  _155
REMARK   66  A    between atoms: _154  and  _157
REMARK   67  A    between atoms: _157  and  _158
REMARK   68  A    between atoms: _160  and  _162
REMARK   69  A    between atoms: _162  and  _163
REMARK   70  A    between atoms: _162  and  _165
REMARK   71  A    between atoms: _165  and  _166
REMARK   72  A    between atoms: _169  and  _171
REMARK   73  A    between atoms: _171  and  _172
REMARK   74  A    between atoms: _171  and  _174
REMARK   75  A    between atoms: _174  and  _175
REMARK   76  A    between atoms: _175  and  _176
REMARK   77  A    between atoms: _176  and  _177
REMARK   78  A    between atoms: _177  and  _178
REMARK   79  A    between atoms: _182  and  _184
REMARK   80  A    between atoms: _184  and  _185
REMARK   81  A    between atoms: _184  and  _187
REMARK   82  A    between atoms: _187  and  _188
REMARK   83  A    between atoms: _193  and  _194
REMARK   84  A    between atoms: _196  and  _198
REMARK   85  A    between atoms: _198  and  _199
REMARK   86  A    between atoms: _198  and  _201
REMARK   87  A    between atoms: _204  and  _206
REMARK   88  A    between atoms: _206  and  _207
REMARK   89  A    between atoms: _206  and  _209
REMARK   90  A    between atoms: _209  and  _210
REMARK   91  A    between atoms: _215  and  _216
REMARK   92  A    between atoms: _218  and  _220
REMARK   93  A    between atoms: _220  and  _221
REMARK   94  A    between atoms: _220  and  _223
REMARK   95  A    between atoms: _223  and  _224
REMARK   96  A    between atoms: _234  and  _236
REMARK   97  A    between atoms: _236  and  _237
REMARK   98  A    between atoms: _236  and  _239
REMARK   99  A    between atoms: _239  and  _240
REMARK  100  A    between atoms: _243  and  _245
REMARK  101  A    between atoms: _245  and  _246
REMARK  102  A    between atoms: _245  and  _248
REMARK  103  A    between atoms: _248  and  _249
REMARK  104  A    between atoms: _254  and  _255
REMARK  105  A    between atoms: _257  and  _259
REMARK  106  A    between atoms: _259  and  _260
REMARK  107  A    between atoms: _259  and  _262
REMARK  108  A    between atoms: _262  and  _263
REMARK  109  A    between atoms: _268  and  _269
REMARK  110  A    between atoms: _271  and  _273
REMARK  111  A    between atoms: _273  and  _274
REMARK  112  A    between atoms: _277  and  _279
REMARK  113  A    between atoms: _279  and  _280
REMARK  114  A    between atoms: _279  and  _282
REMARK  115  A    between atoms: _282  and  _283
REMARK  116  A    between atoms: _293  and  _295
REMARK  117  A    between atoms: _295  and  _296
REMARK  118  A    between atoms: _295  and  _298
REMARK  119  A    between atoms: _298  and  _299
REMARK  120  A    between atoms: _299  and  _300
REMARK  121  A    between atoms: _300  and  _301
REMARK  122  A    between atoms: _301  and  _302
REMARK  123  A    between atoms: _306  and  _308
REMARK  124  A    between atoms: _308  and  _309
REMARK  125  A    between atoms: _308  and  _311
REMARK  126  A    between atoms: _311  and  _312
REMARK  127  A    between atoms: _322  and  _324
REMARK  128  A    between atoms: _324  and  _325
REMARK  129  A    between atoms: _324  and  _327
REMARK  130  A    between atoms: _327  and  _328
REMARK  131  A    between atoms: _331  and  _333
REMARK  132  A    between atoms: _333  and  _334
REMARK  133  A    between atoms: _333  and  _336
REMARK  134  A    between atoms: _336  and  _337
REMARK  135  A    between atoms: _340  and  _342
REMARK  136  A    between atoms: _342  and  _343
REMARK  137  A    between atoms: _345  and  _347
REMARK  138  A    between atoms: _347  and  _348
REMARK  139  A    between atoms: _347  and  _350
REMARK  140  A    between atoms: _350  and  _351
REMARK  141  A    between atoms: _361  and  _363
REMARK  142  A    between atoms: _363  and  _364
REMARK  143  A    between atoms: _366  and  _368
REMARK  144  A    between atoms: _368  and  _369
REMARK  145  A    between atoms: _368  and  _371
REMARK  146  A    between atoms: _371  and  _372
REMARK  147  A    between atoms: _375  and  _377
REMARK  148  A    between atoms: _377  and  _378
REMARK  149  A    between atoms: _377  and  _380
REMARK  150  A    between atoms: _380  and  _381
REMARK  151  A    between atoms: _386  and  _388
REMARK  152  A    between atoms: _388  and  _389
REMARK  153  A    between atoms: _388  and  _391
REMARK  154  A    between atoms: _391  and  _392
REMARK  155  A    between atoms: _397  and  _399
REMARK  156  A    between atoms: _399  and  _400
REMARK  157  A    between atoms: _399  and  _402
REMARK  158  A    between atoms: _402  and  _403
REMARK                            x       y       z     vdW  Elec       q    Type
REMARK                         _______ _______ _______ _____ _____    ______ ____
ROOT
ATOM      1  O   HOH     1      14.795  10.899  38.294  0.00  0.00    +0.000 OA
ENDROOT
TORSDOF 0
REMARK  Name = ../refined-set-2016/2epn/2epn_pocket.pdb
REMARK  158 active torsions:
REMARK  status: ('A' for Active; 'I' for Inactive)
REMARK    1  A    between atoms: _1  and  _3
REMARK    2  A    between atoms: _3  and  _4
REMARK    3  A    between atoms: _3  and  _6
REMARK    4  A    between atoms: _6  and  _7
REMARK    5  A    between atoms: _7  and  _8
REMARK    6  A    between atoms: _10  and  _12
REMARK    7  A    between atoms: _12  and  _13
REMARK    8  A    between atoms: _12  and  _15
REMARK    9  A    between atoms: _15  and  _16
REMARK   10  A    between atoms: _19  and  _21
REMARK   11  A    between atoms: _21  and  _22
REMARK   12  A    between atoms: _21  and  _24
REMARK   13  A    between atoms: _24  and  _25
REMARK   14  A    between atoms: _25  and  _26
REMARK   15  A    between atoms: _26  and  _27
REMARK   16  A    between atoms: _36  and  _38
REMARK   17  A    between atoms: _38  and  _39
REMARK   18  A    between atoms: _38  and  _41
REMARK   19  A    between atoms: _41  and  _42
REMARK   20  A    between atoms: _47  and  _48
REMARK   21  A    between atoms: _50  and  _52
REMARK   22  A    between atoms: _52  and  _53
REMARK   23  A    between atoms: _52  and  _55
REMARK   24  A    between atoms: _55  and  _56
REMARK   25  A    between atoms: _56  and  _57
REMARK   26  A    between atoms: _60  and  _62
REMARK   27  A    between atoms: _62  and  _63
REMARK   28  A    between atoms: _62  and  _65
REMARK   29  A    between atoms: _65  and  _66
REMARK   30  A    between atoms: _66  and  _67
REMARK   31  A    between atoms: _72  and  _74
REMARK   32  A    between atoms: _74  and  _75
REMARK   33  A    between atoms: _74  and  _77
REMARK   34  A    between atoms: _77  and  _78
REMARK   35  A    between atoms: _83  and  _85
REMARK   36  A    between atoms: _85  and  _86
REMARK   37  A    between atoms: _85  and  _88
REMARK   38  A    between atoms: _88  and  _89
REMARK   39  A    between atoms: _94  and  _96
REMARK   40  A    between atoms: _96  and  _97
REMARK   41  A    between atoms: _99  and  _101
REMARK   42  A    between atoms: _101  and  _102
REMARK   43  A    between atoms: _101  and  _104
REMARK   44  A    between atoms: _104  and  _105
REMARK   45  A    between atoms: _105  and  _106
REMARK   46  A    between atoms: _108  and  _110
REMARK   47  A    between atoms: _110  and  _111
REMARK   48  A    between atoms: _110  and  _113
REMARK   49  A    between atoms: _113  and  _114
REMARK   50  A    between atoms: _117  and  _119
REMARK   51  A    between atoms: _119  and  _120
REMARK   52  A    between atoms: _119  and  _122
REMARK   53  A    between atoms: _122  and  _123
REMARK   54  A    between atoms: _123  and  _124
REMARK   55  A    between atoms: _127  and  _129
REMARK   56  A    between atoms: _129  and  _130
REMARK   57  A    between atoms: _129  and  _132
REMARK   58  A    between atoms: _132  and  _133
REMARK   59  A    between atoms: _133  and  _134
REMARK   60  A    between atoms: _136  and  _138
REMARK   61  A    between atoms: _138  and  _139
REMARK   62  A    between atoms: _138  and  _141
REMARK   63  A    between atoms: _141  and  _142
REMARK   64  A    between atoms: _152  and  _154
REMARK   65  A    between atoms: _154  and  _155
REMARK   66  A    between atoms: _154  and  _157
REMARK   67  A    between atoms: _157  and  _158
REMARK   68  A    between atoms: _160  and  _162
REMARK   69  A    between atoms: _162  and  _163
REMARK   70  A    between atoms: _162  and  _165
REMARK   71  A    between atoms: _165  and  _166
REMARK   72  A    between atoms: _169  and  _171
REMARK   73  A    between atoms: _171  and  _172
REMARK   74  A    between atoms: _171  and  _174
REMARK   75  A    between atoms: _174  and  _175
REMARK   76  A    between atoms: _175  and  _176
REMARK   77  A    between atoms: _176  and  _177
REMARK   78  A    between atoms: _177  and  _178
REMARK   79  A    between atoms: _182  and  _184
REMARK   80  A    between atoms: _184  and  _185
REMARK   81  A    between atoms: _184  and  _187
REMARK   82  A    between atoms: _187  and  _188
REMARK   83  A    between atoms: _193  and  _194
REMARK   84  A    between atoms: _196  and  _198
REMARK   85  A    between atoms: _198  and  _199
REMARK   86  A    between atoms: _198  and  _201
REMARK   87  A    between atoms: _204  and  _206
REMARK   88  A    between atoms: _206  and  _207
REMARK   89  A    between atoms: _206  and  _209
REMARK   90  A    between atoms: _209  and  _210
REMARK   91  A    between atoms: _215  and  _216
REMARK   92  A    between atoms: _218  and  _220
REMARK   93  A    between atoms: _220  and  _221
REMARK   94  A    between atoms: _220  and  _223
REMARK   95  A    between atoms: _223  and  _224
REMARK   96  A    between atoms: _234  and  _236
REMARK   97  A    between atoms: _236  and  _237
REMARK   98  A    between atoms: _236  and  _239
REMARK   99  A    between atoms: _239  and  _240
REMARK  100  A    between atoms: _243  and  _245
REMARK  101  A    between atoms: _245  and  _246
REMARK  102  A    between atoms: _245  and  _248
REMARK  103  A    between atoms: _248  and  _249
REMARK  104  A    between atoms: _254  and  _255
REMARK  105  A    between atoms: _257  and  _259
REMARK  106  A    between atoms: _259  and  _260
REMARK  107  A    between atoms: _259  and  _262
REMARK  108  A    between atoms: _262  and  _263
REMARK  109  A    between atoms: _268  and  _269
REMARK  110  A    between atoms: _271  and  _273
REMARK  111  A    between atoms: _273  and  _274
REMARK  112  A    between atoms: _277  and  _279
REMARK  113  A    between atoms: _279  and  _280
REMARK  114  A    between atoms: _279  and  _282
REMARK  115  A    between atoms: _282  and  _283
REMARK  116  A    between atoms: _293  and  _295
REMARK  117  A    between atoms: _295  and  _296
REMARK  118  A    between atoms: _295  and  _298
REMARK  119  A    between atoms: _298  and  _299
REMARK  120  A    between atoms: _299  and  _300
REMARK  121  A    between atoms: _300  and  _301
REMARK  122  A    between atoms: _301  and  _302
REMARK  123  A    between atoms: _306  and  _308
REMARK  124  A    between atoms: _308  and  _309
REMARK  125  A    between atoms: _308  and  _311
REMARK  126  A    between atoms: _311  and  _312
REMARK  127  A    between atoms: _322  and  _324
REMARK  128  A    between atoms: _324  and  _325
REMARK  129  A    between atoms: _324  and  _327
REMARK  130  A    between atoms: _327  and  _328
REMARK  131  A    between atoms: _331  and  _333
REMARK  132  A    between atoms: _333  and  _334
REMARK  133  A    between atoms: _333  and  _336
REMARK  134  A    between atoms: _336  and  _337
REMARK  135  A    between atoms: _340  and  _342
REMARK  136  A    between atoms: _342  and  _343
REMARK  137  A    between atoms: _345  and  _347
REMARK  138  A    between atoms: _347  and  _348
REMARK  139  A    between atoms: _347  and  _350
REMARK  140  A    between atoms: _350  and  _351
REMARK  141  A    between atoms: _361  and  _363
REMARK  142  A    between atoms: _363  and  _364
REMARK  143  A    between atoms: _366  and  _368
REMARK  144  A    between atoms: _368  and  _369
REMARK  145  A    between atoms: _368  and  _371
REMARK  146  A    between atoms: _371  and  _372
REMARK  147  A    between atoms: _375  and  _377
REMARK  148  A    between atoms: _377  and  _378
REMARK  149  A    between atoms: _377  and  _380
REMARK  150  A    between atoms: _380  and  _381
REMARK  151  A    between atoms: _386  and  _388
REMARK  152  A    between atoms: _388  and  _389
REMARK  153  A    between atoms: _388  and  _391
REMARK  154  A    between atoms: _391  and  _392
REMARK  155  A    between atoms: _397  and  _399
REMARK  156  A    between atoms: _399  and  _400
REMARK  157  A    between atoms: _399  and  _402
REMARK  158  A    between atoms: _402  and  _403
REMARK                            x       y       z     vdW  Elec       q    Type
REMARK                         _______ _______ _______ _____ _____    ______ ____
ROOT
ATOM      1  O   HOH     1      18.439  13.360  37.177  0.00  0.00    +0.000 OA
ENDROOT
TORSDOF 0
REMARK  Name = ../refined-set-2016/2epn/2epn_pocket.pdb
REMARK  158 active torsions:
REMARK  status: ('A' for Active; 'I' for Inactive)
REMARK    1  A    between atoms: _1  and  _3
REMARK    2  A    between atoms: _3  and  _4
REMARK    3  A    between atoms: _3  and  _6
REMARK    4  A    between atoms: _6  and  _7
REMARK    5  A    between atoms: _7  and  _8
REMARK    6  A    between atoms: _10  and  _12
REMARK    7  A    between atoms: _12  and  _13
REMARK    8  A    between atoms: _12  and  _15
REMARK    9  A    between atoms: _15  and  _16
REMARK   10  A    between atoms: _19  and  _21
REMARK   11  A    between atoms: _21  and  _22
REMARK   12  A    between atoms: _21  and  _24
REMARK   13  A    between atoms: _24  and  _25
REMARK   14  A    between atoms: _25  and  _26
REMARK   15  A    between atoms: _26  and  _27
REMARK   16  A    between atoms: _36  and  _38
REMARK   17  A    between atoms: _38  and  _39
REMARK   18  A    between atoms: _38  and  _41
REMARK   19  A    between atoms: _41  and  _42
REMARK   20  A    between atoms: _47  and  _48
REMARK   21  A    between atoms: _50  and  _52
REMARK   22  A    between atoms: _52  and  _53
REMARK   23  A    between atoms: _52  and  _55
REMARK   24  A    between atoms: _55  and  _56
REMARK   25  A    between atoms: _56  and  _57
REMARK   26  A    between atoms: _60  and  _62
REMARK   27  A    between atoms: _62  and  _63
REMARK   28  A    between atoms: _62  and  _65
REMARK   29  A    between atoms: _65  and  _66
REMARK   30  A    between atoms: _66  and  _67
REMARK   31  A    between atoms: _72  and  _74
REMARK   32  A    between atoms: _74  and  _75
REMARK   33  A    between atoms: _74  and  _77
REMARK   34  A    between atoms: _77  and  _78
REMARK   35  A    between atoms: _83  and  _85
REMARK   36  A    between atoms: _85  and  _86
REMARK   37  A    between atoms: _85  and  _88
REMARK   38  A    between atoms: _88  and  _89
REMARK   39  A    between atoms: _94  and  _96
REMARK   40  A    between atoms: _96  and  _97
REMARK   41  A    between atoms: _99  and  _101
REMARK   42  A    between atoms: _101  and  _102
REMARK   43  A    between atoms: _101  and  _104
REMARK   44  A    between atoms: _104  and  _105
REMARK   45  A    between atoms: _105  and  _106
REMARK   46  A    between atoms: _108  and  _110
REMARK   47  A    between atoms: _110  and  _111
REMARK   48  A    between atoms: _110  and  _113
REMARK   49  A    between atoms: _113  and  _114
REMARK   50  A    between atoms: _117  and  _119
REMARK   51  A    between atoms: _119  and  _120
REMARK   52  A    between atoms: _119  and  _122
REMARK   53  A    between atoms: _122  and  _123
REMARK   54  A    between atoms: _123  and  _124
REMARK   55  A    between atoms: _127  and  _129
REMARK   56  A    between atoms: _129  and  _130
REMARK   57  A    between atoms: _129  and  _132
REMARK   58  A    between atoms: _132  and  _133
REMARK   59  A    between atoms: _133  and  _134
REMARK   60  A    between atoms: _136  and  _138
REMARK   61  A    between atoms: _138  and  _139
REMARK   62  A    between atoms: _138  and  _141
REMARK   63  A    between atoms: _141  and  _142
REMARK   64  A    between atoms: _152  and  _154
REMARK   65  A    between atoms: _154  and  _155
REMARK   66  A    between atoms: _154  and  _157
REMARK   67  A    between atoms: _157  and  _158
REMARK   68  A    between atoms: _160  and  _162
REMARK   69  A    between atoms: _162  and  _163
REMARK   70  A    between atoms: _162  and  _165
REMARK   71  A    between atoms: _165  and  _166
REMARK   72  A    between atoms: _169  and  _171
REMARK   73  A    between atoms: _171  and  _172
REMARK   74  A    between atoms: _171  and  _174
REMARK   75  A    between atoms: _174  and  _175
REMARK   76  A    between atoms: _175  and  _176
REMARK   77  A    between atoms: _176  and  _177
REMARK   78  A    between atoms: _177  and  _178
REMARK   79  A    between atoms: _182  and  _184
REMARK   80  A    between atoms: _184  and  _185
REMARK   81  A    between atoms: _184  and  _187
REMARK   82  A    between atoms: _187  and  _188
REMARK   83  A    between atoms: _193  and  _194
REMARK   84  A    between atoms: _196  and  _198
REMARK   85  A    between atoms: _198  and  _199
REMARK   86  A    between atoms: _198  and  _201
REMARK   87  A    between atoms: _204  and  _206
REMARK   88  A    between atoms: _206  and  _207
REMARK   89  A    between atoms: _206  and  _209
REMARK   90  A    between atoms: _209  and  _210
REMARK   91  A    between atoms: _215  and  _216
REMARK   92  A    between atoms: _218  and  _220
REMARK   93  A    between atoms: _220  and  _221
REMARK   94  A    between atoms: _220  and  _223
REMARK   95  A    between atoms: _223  and  _224
REMARK   96  A    between atoms: _234  and  _236
REMARK   97  A    between atoms: _236  and  _237
REMARK   98  A    between atoms: _236  and  _239
REMARK   99  A    between atoms: _239  and  _240
REMARK  100  A    between atoms: _243  and  _245
REMARK  101  A    between atoms: _245  and  _246
REMARK  102  A    between atoms: _245  and  _248
REMARK  103  A    between atoms: _248  and  _249
REMARK  104  A    between atoms: _254  and  _255
REMARK  105  A    between atoms: _257  and  _259
REMARK  106  A    between atoms: _259  and  _260
REMARK  107  A    between atoms: _259  and  _262
REMARK  108  A    between atoms: _262  and  _263
REMARK  109  A    between atoms: _268  and  _269
REMARK  110  A    between atoms: _271  and  _273
REMARK  111  A    between atoms: _273  and  _274
REMARK  112  A    between atoms: _277  and  _279
REMARK  113  A    between atoms: _279  and  _280
REMARK  114  A    between atoms: _279  and  _282
REMARK  115  A    between atoms: _282  and  _283
REMARK  116  A    between atoms: _293  and  _295
REMARK  117  A    between atoms: _295  and  _296
REMARK  118  A    between atoms: _295  and  _298
REMARK  119  A    between atoms: _298  and  _299
REMARK  120  A    between atoms: _299  and  _300
REMARK  121  A    between atoms: _300  and  _301
REMARK  122  A    between atoms: _301  and  _302
REMARK  123  A    between atoms: _306  and  _308
REMARK  124  A    between atoms: _308  and  _309
REMARK  125  A    between atoms: _308  and  _311
REMARK  126  A    between atoms: _311  and  _312
REMARK  127  A    between atoms: _322  and  _324
REMARK  128  A    between atoms: _324  and  _325
REMARK  129  A    between atoms: _324  and  _327
REMARK  130  A    between atoms: _327  and  _328
REMARK  131  A    between atoms: _331  and  _333
REMARK  132  A    between atoms: _333  and  _334
REMARK  133  A    between atoms: _333  and  _336
REMARK  134  A    between atoms: _336  and  _337
REMARK  135  A    between atoms: _340  and  _342
REMARK  136  A    between atoms: _342  and  _343
REMARK  137  A    between atoms: _345  and  _347
REMARK  138  A    between atoms: _347  and  _348
REMARK  139  A    between atoms: _347  and  _350
REMARK  140  A    between atoms: _350  and  _351
REMARK  141  A    between atoms: _361  and  _363
REMARK  142  A    between atoms: _363  and  _364
REMARK  143  A    between atoms: _366  and  _368
REMARK  144  A    between atoms: _368  and  _369
REMARK  145  A    between atoms: _368  and  _371
REMARK  146  A    between atoms: _371  and  _372
REMARK  147  A    between atoms: _375  and  _377
REMARK  148  A    between atoms: _377  and  _378
REMARK  149  A    between atoms: _377  and  _380
REMARK  150  A    between atoms: _380  and  _381
REMARK  151  A    between atoms: _386  and  _388
REMARK  152  A    between atoms: _388  and  _389
REMARK  153  A    between atoms: _388  and  _391
REMARK  154  A    between atoms: _391  and  _392
REMARK  155  A    between atoms: _397  and  _399
REMARK  156  A    between atoms: _399  and  _400
REMARK  157  A    between atoms: _399  and  _402
REMARK  158  A    between atoms: _402  and  _403
REMARK                            x       y       z     vdW  Elec       q    Type
REMARK                         _______ _______ _______ _____ _____    ______ ____
ROOT
ATOM      1  O   HOH     1      21.697   6.469  36.862  0.00  0.00    +0.000 OA
ENDROOT
TORSDOF 0
REMARK  Name = ../refined-set-2016/2epn/2epn_pocket.pdb
REMARK  158 active torsions:
REMARK  status: ('A' for Active; 'I' for Inactive)
REMARK    1  A    between atoms: _1  and  _3
REMARK    2  A    between atoms: _3  and  _4
REMARK    3  A    between atoms: _3  and  _6
REMARK    4  A    between atoms: _6  and  _7
REMARK    5  A    between atoms: _7  and  _8
REMARK    6  A    between atoms: _10  and  _12
REMARK    7  A    between atoms: _12  and  _13
REMARK    8  A    between atoms: _12  and  _15
REMARK    9  A    between atoms: _15  and  _16
REMARK   10  A    between atoms: _19  and  _21
REMARK   11  A    between atoms: _21  and  _22
REMARK   12  A    between atoms: _21  and  _24
REMARK   13  A    between atoms: _24  and  _25
REMARK   14  A    between atoms: _25  and  _26
REMARK   15  A    between atoms: _26  and  _27
REMARK   16  A    between atoms: _36  and  _38
REMARK   17  A    between atoms: _38  and  _39
REMARK   18  A    between atoms: _38  and  _41
REMARK   19  A    between atoms: _41  and  _42
REMARK   20  A    between atoms: _47  and  _48
REMARK   21  A    between atoms: _50  and  _52
REMARK   22  A    between atoms: _52  and  _53
REMARK   23  A    between atoms: _52  and  _55
REMARK   24  A    between atoms: _55  and  _56
REMARK   25  A    between atoms: _56  and  _57
REMARK   26  A    between atoms: _60  and  _62
REMARK   27  A    between atoms: _62  and  _63
REMARK   28  A    between atoms: _62  and  _65
REMARK   29  A    between atoms: _65  and  _66
REMARK   30  A    between atoms: _66  and  _67
REMARK   31  A    between atoms: _72  and  _74
REMARK   32  A    between atoms: _74  and  _75
REMARK   33  A    between atoms: _74  and  _77
REMARK   34  A    between atoms: _77  and  _78
REMARK   35  A    between atoms: _83  and  _85
REMARK   36  A    between atoms: _85  and  _86
REMARK   37  A    between atoms: _85  and  _88
REMARK   38  A    between atoms: _88  and  _89
REMARK   39  A    between atoms: _94  and  _96
REMARK   40  A    between atoms: _96  and  _97
REMARK   41  A    between atoms: _99  and  _101
REMARK   42  A    between atoms: _101  and  _102
REMARK   43  A    between atoms: _101  and  _104
REMARK   44  A    between atoms: _104  and  _105
REMARK   45  A    between atoms: _105  and  _106
REMARK   46  A    between atoms: _108  and  _110
REMARK   47  A    between atoms: _110  and  _111
REMARK   48  A    between atoms: _110  and  _113
REMARK   49  A    between atoms: _113  and  _114
REMARK   50  A    between atoms: _117  and  _119
REMARK   51  A    between atoms: _119  and  _120
REMARK   52  A    between atoms: _119  and  _122
REMARK   53  A    between atoms: _122  and  _123
REMARK   54  A    between atoms: _123  and  _124
REMARK   55  A    between atoms: _127  and  _129
REMARK   56  A    between atoms: _129  and  _130
REMARK   57  A    between atoms: _129  and  _132
REMARK   58  A    between atoms: _132  and  _133
REMARK   59  A    between atoms: _133  and  _134
REMARK   60  A    between atoms: _136  and  _138
REMARK   61  A    between atoms: _138  and  _139
REMARK   62  A    between atoms: _138  and  _141
REMARK   63  A    between atoms: _141  and  _142
REMARK   64  A    between atoms: _152  and  _154
REMARK   65  A    between atoms: _154  and  _155
REMARK   66  A    between atoms: _154  and  _157
REMARK   67  A    between atoms: _157  and  _158
REMARK   68  A    between atoms: _160  and  _162
REMARK   69  A    between atoms: _162  and  _163
REMARK   70  A    between atoms: _162  and  _165
REMARK   71  A    between atoms: _165  and  _166
REMARK   72  A    between atoms: _169  and  _171
REMARK   73  A    between atoms: _171  and  _172
REMARK   74  A    between atoms: _171  and  _174
REMARK   75  A    between atoms: _174  and  _175
REMARK   76  A    between atoms: _175  and  _176
REMARK   77  A    between atoms: _176  and  _177
REMARK   78  A    between atoms: _177  and  _178
REMARK   79  A    between atoms: _182  and  _184
REMARK   80  A    between atoms: _184  and  _185
REMARK   81  A    between atoms: _184  and  _187
REMARK   82  A    between atoms: _187  and  _188
REMARK   83  A    between atoms: _193  and  _194
REMARK   84  A    between atoms: _196  and  _198
REMARK   85  A    between atoms: _198  and  _199
REMARK   86  A    between atoms: _198  and  _201
REMARK   87  A    between atoms: _204  and  _206
REMARK   88  A    between atoms: _206  and  _207
REMARK   89  A    between atoms: _206  and  _209
REMARK   90  A    between atoms: _209  and  _210
REMARK   91  A    between atoms: _215  and  _216
REMARK   92  A    between atoms: _218  and  _220
REMARK   93  A    between atoms: _220  and  _221
REMARK   94  A    between atoms: _220  and  _223
REMARK   95  A    between atoms: _223  and  _224
REMARK   96  A    between atoms: _234  and  _236
REMARK   97  A    between atoms: _236  and  _237
REMARK   98  A    between atoms: _236  and  _239
REMARK   99  A    between atoms: _239  and  _240
REMARK  100  A    between atoms: _243  and  _245
REMARK  101  A    between atoms: _245  and  _246
REMARK  102  A    between atoms: _245  and  _248
REMARK  103  A    between atoms: _248  and  _249
REMARK  104  A    between atoms: _254  and  _255
REMARK  105  A    between atoms: _257  and  _259
REMARK  106  A    between atoms: _259  and  _260
REMARK  107  A    between atoms: _259  and  _262
REMARK  108  A    between atoms: _262  and  _263
REMARK  109  A    between atoms: _268  and  _269
REMARK  110  A    between atoms: _271  and  _273
REMARK  111  A    between atoms: _273  and  _274
REMARK  112  A    between atoms: _277  and  _279
REMARK  113  A    between atoms: _279  and  _280
REMARK  114  A    between atoms: _279  and  _282
REMARK  115  A    between atoms: _282  and  _283
REMARK  116  A    between atoms: _293  and  _295
REMARK  117  A    between atoms: _295  and  _296
REMARK  118  A    between atoms: _295  and  _298
REMARK  119  A    between atoms: _298  and  _299
REMARK  120  A    between atoms: _299  and  _300
REMARK  121  A    between atoms: _300  and  _301
REMARK  122  A    between atoms: _301  and  _302
REMARK  123  A    between atoms: _306  and  _308
REMARK  124  A    between atoms: _308  and  _309
REMARK  125  A    between atoms: _308  and  _311
REMARK  126  A    between atoms: _311  and  _312
REMARK  127  A    between atoms: _322  and  _324
REMARK  128  A    between atoms: _324  and  _325
REMARK  129  A    between atoms: _324  and  _327
REMARK  130  A    between atoms: _327  and  _328
REMARK  131  A    between atoms: _331  and  _333
REMARK  132  A    between atoms: _333  and  _334
REMARK  133  A    between atoms: _333  and  _336
REMARK  134  A    between atoms: _336  and  _337
REMARK  135  A    between atoms: _340  and  _342
REMARK  136  A    between atoms: _342  and  _343
REMARK  137  A    between atoms: _345  and  _347
REMARK  138  A    between atoms: _347  and  _348
REMARK  139  A    between atoms: _347  and  _350
REMARK  140  A    between atoms: _350  and  _351
REMARK  141  A    between atoms: _361  and  _363
REMARK  142  A    between atoms: _363  and  _364
REMARK  143  A    between atoms: _366  and  _368
REMARK  144  A    between atoms: _368  and  _369
REMARK  145  A    between atoms: _368  and  _371
REMARK  146  A    between atoms: _371  and  _372
REMARK  147  A    between atoms: _375  and  _377
REMARK  148  A    between atoms: _377  and  _378
REMARK  149  A    between atoms: _377  and  _380
REMARK  150  A    between atoms: _380  and  _381
REMARK  151  A    between atoms: _386  and  _388
REMARK  152  A    between atoms: _388  and  _389
REMARK  153  A    between atoms: _388  and  _391
REMARK  154  A    between atoms: _391  and  _392
REMARK  155  A    between atoms: _397  and  _399
REMARK  156  A    between atoms: _399  and  _400
REMARK  157  A    between atoms: _399  and  _402
REMARK  158  A    between atoms: _402  and  _403
REMARK                            x       y       z     vdW  Elec       q    Type
REMARK                         _______ _______ _______ _____ _____    ______ ____
ROOT
ATOM      1  O   HOH     1      17.377  11.480  38.976  0.00  0.00    +0.000 OA
ENDROOT
TORSDOF 0
REMARK  Name = ../refined-set-2016/2epn/2epn_pocket.pdb
REMARK  158 active torsions:
REMARK  status: ('A' for Active; 'I' for Inactive)
REMARK    1  A    between atoms: _1  and  _3
REMARK    2  A    between atoms: _3  and  _4
REMARK    3  A    between atoms: _3  and  _6
REMARK    4  A    between atoms: _6  and  _7
REMARK    5  A    between atoms: _7  and  _8
REMARK    6  A    between atoms: _10  and  _12
REMARK    7  A    between atoms: _12  and  _13
REMARK    8  A    between atoms: _12  and  _15
REMARK    9  A    between atoms: _15  and  _16
REMARK   10  A    between atoms: _19  and  _21
REMARK   11  A    between atoms: _21  and  _22
REMARK   12  A    between atoms: _21  and  _24
REMARK   13  A    between atoms: _24  and  _25
REMARK   14  A    between atoms: _25  and  _26
REMARK   15  A    between atoms: _26  and  _27
REMARK   16  A    between atoms: _36  and  _38
REMARK   17  A    between atoms: _38  and  _39
REMARK   18  A    between atoms: _38  and  _41
REMARK   19  A    between atoms: _41  and  _42
REMARK   20  A    between atoms: _47  and  _48
REMARK   21  A    between atoms: _50  and  _52
REMARK   22  A    between atoms: _52  and  _53
REMARK   23  A    between atoms: _52  and  _55
REMARK   24  A    between atoms: _55  and  _56
REMARK   25  A    between atoms: _56  and  _57
REMARK   26  A    between atoms: _60  and  _62
REMARK   27  A    between atoms: _62  and  _63
REMARK   28  A    between atoms: _62  and  _65
REMARK   29  A    between atoms: _65  and  _66
REMARK   30  A    between atoms: _66  and  _67
REMARK   31  A    between atoms: _72  and  _74
REMARK   32  A    between atoms: _74  and  _75
REMARK   33  A    between atoms: _74  and  _77
REMARK   34  A    between atoms: _77  and  _78
REMARK   35  A    between atoms: _83  and  _85
REMARK   36  A    between atoms: _85  and  _86
REMARK   37  A    between atoms: _85  and  _88
REMARK   38  A    between atoms: _88  and  _89
REMARK   39  A    between atoms: _94  and  _96
REMARK   40  A    between atoms: _96  and  _97
REMARK   41  A    between atoms: _99  and  _101
REMARK   42  A    between atoms: _101  and  _102
REMARK   43  A    between atoms: _101  and  _104
REMARK   44  A    between atoms: _104  and  _105
REMARK   45  A    between atoms: _105  and  _106
REMARK   46  A    between atoms: _108  and  _110
REMARK   47  A    between atoms: _110  and  _111
REMARK   48  A    between atoms: _110  and  _113
REMARK   49  A    between atoms: _113  and  _114
REMARK   50  A    between atoms: _117  and  _119
REMARK   51  A    between atoms: _119  and  _120
REMARK   52  A    between atoms: _119  and  _122
REMARK   53  A    between atoms: _122  and  _123
REMARK   54  A    between atoms: _123  and  _124
REMARK   55  A    between atoms: _127  and  _129
REMARK   56  A    between atoms: _129  and  _130
REMARK   57  A    between atoms: _129  and  _132
REMARK   58  A    between atoms: _132  and  _133
REMARK   59  A    between atoms: _133  and  _134
REMARK   60  A    between atoms: _136  and  _138
REMARK   61  A    between atoms: _138  and  _139
REMARK   62  A    between atoms: _138  and  _141
REMARK   63  A    between atoms: _141  and  _142
REMARK   64  A    between atoms: _152  and  _154
REMARK   65  A    between atoms: _154  and  _155
REMARK   66  A    between atoms: _154  and  _157
REMARK   67  A    between atoms: _157  and  _158
REMARK   68  A    between atoms: _160  and  _162
REMARK   69  A    between atoms: _162  and  _163
REMARK   70  A    between atoms: _162  and  _165
REMARK   71  A    between atoms: _165  and  _166
REMARK   72  A    between atoms: _169  and  _171
REMARK   73  A    between atoms: _171  and  _172
REMARK   74  A    between atoms: _171  and  _174
REMARK   75  A    between atoms: _174  and  _175
REMARK   76  A    between atoms: _175  and  _176
REMARK   77  A    between atoms: _176  and  _177
REMARK   78  A    between atoms: _177  and  _178
REMARK   79  A    between atoms: _182  and  _184
REMARK   80  A    between atoms: _184  and  _185
REMARK   81  A    between atoms: _184  and  _187
REMARK   82  A    between atoms: _187  and  _188
REMARK   83  A    between atoms: _193  and  _194
REMARK   84  A    between atoms: _196  and  _198
REMARK   85  A    between atoms: _198  and  _199
REMARK   86  A    between atoms: _198  and  _201
REMARK   87  A    between atoms: _204  and  _206
REMARK   88  A    between atoms: _206  and  _207
REMARK   89  A    between atoms: _206  and  _209
REMARK   90  A    between atoms: _209  and  _210
REMARK   91  A    between atoms: _215  and  _216
REMARK   92  A    between atoms: _218  and  _220
REMARK   93  A    between atoms: _220  and  _221
REMARK   94  A    between atoms: _220  and  _223
REMARK   95  A    between atoms: _223  and  _224
REMARK   96  A    between atoms: _234  and  _236
REMARK   97  A    between atoms: _236  and  _237
REMARK   98  A    between atoms: _236  and  _239
REMARK   99  A    between atoms: _239  and  _240
REMARK  100  A    between atoms: _243  and  _245
REMARK  101  A    between atoms: _245  and  _246
REMARK  102  A    between atoms: _245  and  _248
REMARK  103  A    between atoms: _248  and  _249
REMARK  104  A    between atoms: _254  and  _255
REMARK  105  A    between atoms: _257  and  _259
REMARK  106  A    between atoms: _259  and  _260
REMARK  107  A    between atoms: _259  and  _262
REMARK  108  A    between atoms: _262  and  _263
REMARK  109  A    between atoms: _268  and  _269
REMARK  110  A    between atoms: _271  and  _273
REMARK  111  A    between atoms: _273  and  _274
REMARK  112  A    between atoms: _277  and  _279
REMARK  113  A    between atoms: _279  and  _280
REMARK  114  A    between atoms: _279  and  _282
REMARK  115  A    between atoms: _282  and  _283
REMARK  116  A    between atoms: _293  and  _295
REMARK  117  A    between atoms: _295  and  _296
REMARK  118  A    between atoms: _295  and  _298
REMARK  119  A    between atoms: _298  and  _299
REMARK  120  A    between atoms: _299  and  _300
REMARK  121  A    between atoms: _300  and  _301
REMARK  122  A    between atoms: _301  and  _302
REMARK  123  A    between atoms: _306  and  _308
REMARK  124  A    between atoms: _308  and  _309
REMARK  125  A    between atoms: _308  and  _311
REMARK  126  A    between atoms: _311  and  _312
REMARK  127  A    between atoms: _322  and  _324
REMARK  128  A    between atoms: _324  and  _325
REMARK  129  A    between atoms: _324  and  _327
REMARK  130  A    between atoms: _327  and  _328
REMARK  131  A    between atoms: _331  and  _333
REMARK  132  A    between atoms: _333  and  _334
REMARK  133  A    between atoms: _333  and  _336
REMARK  134  A    between atoms: _336  and  _337
REMARK  135  A    between atoms: _340  and  _342
REMARK  136  A    between atoms: _342  and  _343
REMARK  137  A    between atoms: _345  and  _347
REMARK  138  A    between atoms: _347  and  _348
REMARK  139  A    between atoms: _347  and  _350
REMARK  140  A    between atoms: _350  and  _351
REMARK  141  A    between atoms: _361  and  _363
REMARK  142  A    between atoms: _363  and  _364
REMARK  143  A    between atoms: _366  and  _368
REMARK  144  A    between atoms: _368  and  _369
REMARK  145  A    between atoms: _368  and  _371
REMARK  146  A    between atoms: _371  and  _372
REMARK  147  A    between atoms: _375  and  _377
REMARK  148  A    between atoms: _377  and  _378
REMARK  149  A    between atoms: _377  and  _380
REMARK  150  A    between atoms: _380  and  _381
REMARK  151  A    between atoms: _386  and  _388
REMARK  152  A    between atoms: _388  and  _389
REMARK  153  A    between atoms: _388  and  _391
REMARK  154  A    between atoms: _391  and  _392
REMARK  155  A    between atoms: _397  and  _399
REMARK  156  A    between atoms: _399  and  _400
REMARK  157  A    between atoms: _399  and  _402
REMARK  158  A    between atoms: _402  and  _403
REMARK                            x       y       z     vdW  Elec       q    Type
REMARK                         _______ _______ _______ _____ _____    ______ ____
ROOT
ATOM      1  O   HOH     1      22.134   3.107  35.766  0.00  0.00    +0.000 OA
ENDROOT
TORSDOF 0
REMARK  Name = ../refined-set-2016/2epn/2epn_pocket.pdb
REMARK  158 active torsions:
REMARK  status: ('A' for Active; 'I' for Inactive)
REMARK    1  A    between atoms: _1  and  _3
REMARK    2  A    between atoms: _3  and  _4
REMARK    3  A    between atoms: _3  and  _6
REMARK    4  A    between atoms: _6  and  _7
REMARK    5  A    between atoms: _7  and  _8
REMARK    6  A    between atoms: _10  and  _12
REMARK    7  A    between atoms: _12  and  _13
REMARK    8  A    between atoms: _12  and  _15
REMARK    9  A    between atoms: _15  and  _16
REMARK   10  A    between atoms: _19  and  _21
REMARK   11  A    between atoms: _21  and  _22
REMARK   12  A    between atoms: _21  and  _24
REMARK   13  A    between atoms: _24  and  _25
REMARK   14  A    between atoms: _25  and  _26
REMARK   15  A    between atoms: _26  and  _27
REMARK   16  A    between atoms: _36  and  _38
REMARK   17  A    between atoms: _38  and  _39
REMARK   18  A    between atoms: _38  and  _41
REMARK   19  A    between atoms: _41  and  _42
REMARK   20  A    between atoms: _47  and  _48
REMARK   21  A    between atoms: _50  and  _52
REMARK   22  A    between atoms: _52  and  _53
REMARK   23  A    between atoms: _52  and  _55
REMARK   24  A    between atoms: _55  and  _56
REMARK   25  A    between atoms: _56  and  _57
REMARK   26  A    between atoms: _60  and  _62
REMARK   27  A    between atoms: _62  and  _63
REMARK   28  A    between atoms: _62  and  _65
REMARK   29  A    between atoms: _65  and  _66
REMARK   30  A    between atoms: _66  and  _67
REMARK   31  A    between atoms: _72  and  _74
REMARK   32  A    between atoms: _74  and  _75
REMARK   33  A    between atoms: _74  and  _77
REMARK   34  A    between atoms: _77  and  _78
REMARK   35  A    between atoms: _83  and  _85
REMARK   36  A    between atoms: _85  and  _86
REMARK   37  A    between atoms: _85  and  _88
REMARK   38  A    between atoms: _88  and  _89
REMARK   39  A    between atoms: _94  and  _96
REMARK   40  A    between atoms: _96  and  _97
REMARK   41  A    between atoms: _99  and  _101
REMARK   42  A    between atoms: _101  and  _102
REMARK   43  A    between atoms: _101  and  _104
REMARK   44  A    between atoms: _104  and  _105
REMARK   45  A    between atoms: _105  and  _106
REMARK   46  A    between atoms: _108  and  _110
REMARK   47  A    between atoms: _110  and  _111
REMARK   48  A    between atoms: _110  and  _113
REMARK   49  A    between atoms: _113  and  _114
REMARK   50  A    between atoms: _117  and  _119
REMARK   51  A    between atoms: _119  and  _120
REMARK   52  A    between atoms: _119  and  _122
REMARK   53  A    between atoms: _122  and  _123
REMARK   54  A    between atoms: _123  and  _124
REMARK   55  A    between atoms: _127  and  _129
REMARK   56  A    between atoms: _129  and  _130
REMARK   57  A    between atoms: _129  and  _132
REMARK   58  A    between atoms: _132  and  _133
REMARK   59  A    between atoms: _133  and  _134
REMARK   60  A    between atoms: _136  and  _138
REMARK   61  A    between atoms: _138  and  _139
REMARK   62  A    between atoms: _138  and  _141
REMARK   63  A    between atoms: _141  and  _142
REMARK   64  A    between atoms: _152  and  _154
REMARK   65  A    between atoms: _154  and  _155
REMARK   66  A    between atoms: _154  and  _157
REMARK   67  A    between atoms: _157  and  _158
REMARK   68  A    between atoms: _160  and  _162
REMARK   69  A    between atoms: _162  and  _163
REMARK   70  A    between atoms: _162  and  _165
REMARK   71  A    between atoms: _165  and  _166
REMARK   72  A    between atoms: _169  and  _171
REMARK   73  A    between atoms: _171  and  _172
REMARK   74  A    between atoms: _171  and  _174
REMARK   75  A    between atoms: _174  and  _175
REMARK   76  A    between atoms: _175  and  _176
REMARK   77  A    between atoms: _176  and  _177
REMARK   78  A    between atoms: _177  and  _178
REMARK   79  A    between atoms: _182  and  _184
REMARK   80  A    between atoms: _184  and  _185
REMARK   81  A    between atoms: _184  and  _187
REMARK   82  A    between atoms: _187  and  _188
REMARK   83  A    between atoms: _193  and  _194
REMARK   84  A    between atoms: _196  and  _198
REMARK   85  A    between atoms: _198  and  _199
REMARK   86  A    between atoms: _198  and  _201
REMARK   87  A    between atoms: _204  and  _206
REMARK   88  A    between atoms: _206  and  _207
REMARK   89  A    between atoms: _206  and  _209
REMARK   90  A    between atoms: _209  and  _210
REMARK   91  A    between atoms: _215  and  _216
REMARK   92  A    between atoms: _218  and  _220
REMARK   93  A    between atoms: _220  and  _221
REMARK   94  A    between atoms: _220  and  _223
REMARK   95  A    between atoms: _223  and  _224
REMARK   96  A    between atoms: _234  and  _236
REMARK   97  A    between atoms: _236  and  _237
REMARK   98  A    between atoms: _236  and  _239
REMARK   99  A    between atoms: _239  and  _240
REMARK  100  A    between atoms: _243  and  _245
REMARK  101  A    between atoms: _245  and  _246
REMARK  102  A    between atoms: _245  and  _248
REMARK  103  A    between atoms: _248  and  _249
REMARK  104  A    between atoms: _254  and  _255
REMARK  105  A    between atoms: _257  and  _259
REMARK  106  A    between atoms: _259  and  _260
REMARK  107  A    between atoms: _259  and  _262
REMARK  108  A    between atoms: _262  and  _263
REMARK  109  A    between atoms: _268  and  _269
REMARK  110  A    between atoms: _271  and  _273
REMARK  111  A    between atoms: _273  and  _274
REMARK  112  A    between atoms: _277  and  _279
REMARK  113  A    between atoms: _279  and  _280
REMARK  114  A    between atoms: _279  and  _282
REMARK  115  A    between atoms: _282  and  _283
REMARK  116  A    between atoms: _293  and  _295
REMARK  117  A    between atoms: _295  and  _296
REMARK  118  A    between atoms: _295  and  _298
REMARK  119  A    between atoms: _298  and  _299
REMARK  120  A    between atoms: _299  and  _300
REMARK  121  A    between atoms: _300  and  _301
REMARK  122  A    between atoms: _301  and  _302
REMARK  123  A    between atoms: _306  and  _308
REMARK  124  A    between atoms: _308  and  _309
REMARK  125  A    between atoms: _308  and  _311
REMARK  126  A    between atoms: _311  and  _312
REMARK  127  A    between atoms: _322  and  _324
REMARK  128  A    between atoms: _324  and  _325
REMARK  129  A    between atoms: _324  and  _327
REMARK  130  A    between atoms: _327  and  _328
REMARK  131  A    between atoms: _331  and  _333
REMARK  132  A    between atoms: _333  and  _334
REMARK  133  A    between atoms: _333  and  _336
REMARK  134  A    between atoms: _336  and  _337
REMARK  135  A    between atoms: _340  and  _342
REMARK  136  A    between atoms: _342  and  _343
REMARK  137  A    between atoms: _345  and  _347
REMARK  138  A    between atoms: _347  and  _348
REMARK  139  A    between atoms: _347  and  _350
REMARK  140  A    between atoms: _350  and  _351
REMARK  141  A    between atoms: _361  and  _363
REMARK  142  A    between atoms: _363  and  _364
REMARK  143  A    between atoms: _366  and  _368
REMARK  144  A    between atoms: _368  and  _369
REMARK  145  A    between atoms: _368  and  _371
REMARK  146  A    between atoms: _371  and  _372
REMARK  147  A    between atoms: _375  and  _377
REMARK  148  A    between atoms: _377  and  _378
REMARK  149  A    between atoms: _377  and  _380
REMARK  150  A    between atoms: _380  and  _381
REMARK  151  A    between atoms: _386  and  _388
REMARK  152  A    between atoms: _388  and  _389
REMARK  153  A    between atoms: _388  and  _391
REMARK  154  A    between atoms: _391  and  _392
REMARK  155  A    between atoms: _397  and  _399
REMARK  156  A    between atoms: _399  and  _400
REMARK  157  A    between atoms: _399  and  _402
REMARK  158  A    between atoms: _402  and  _403
REMARK                            x       y       z     vdW  Elec       q    Type
REMARK                         _______ _______ _______ _____ _____    ______ ____
ROOT
ATOM      1  O   HOH     1      22.375   9.036  37.217  0.00  0.00    +0.000 OA
ENDROOT
TORSDOF 0
REMARK  Name = ../refined-set-2016/2epn/2epn_pocket.pdb
REMARK  158 active torsions:
REMARK  status: ('A' for Active; 'I' for Inactive)
REMARK    1  A    between atoms: _1  and  _3
REMARK    2  A    between atoms: _3  and  _4
REMARK    3  A    between atoms: _3  and  _6
REMARK    4  A    between atoms: _6  and  _7
REMARK    5  A    between atoms: _7  and  _8
REMARK    6  A    between atoms: _10  and  _12
REMARK    7  A    between atoms: _12  and  _13
REMARK    8  A    between atoms: _12  and  _15
REMARK    9  A    between atoms: _15  and  _16
REMARK   10  A    between atoms: _19  and  _21
REMARK   11  A    between atoms: _21  and  _22
REMARK   12  A    between atoms: _21  and  _24
REMARK   13  A    between atoms: _24  and  _25
REMARK   14  A    between atoms: _25  and  _26
REMARK   15  A    between atoms: _26  and  _27
REMARK   16  A    between atoms: _36  and  _38
REMARK   17  A    between atoms: _38  and  _39
REMARK   18  A    between atoms: _38  and  _41
REMARK   19  A    between atoms: _41  and  _42
REMARK   20  A    between atoms: _47  and  _48
REMARK   21  A    between atoms: _50  and  _52
REMARK   22  A    between atoms: _52  and  _53
REMARK   23  A    between atoms: _52  and  _55
REMARK   24  A    between atoms: _55  and  _56
REMARK   25  A    between atoms: _56  and  _57
REMARK   26  A    between atoms: _60  and  _62
REMARK   27  A    between atoms: _62  and  _63
REMARK   28  A    between atoms: _62  and  _65
REMARK   29  A    between atoms: _65  and  _66
REMARK   30  A    between atoms: _66  and  _67
REMARK   31  A    between atoms: _72  and  _74
REMARK   32  A    between atoms: _74  and  _75
REMARK   33  A    between atoms: _74  and  _77
REMARK   34  A    between atoms: _77  and  _78
REMARK   35  A    between atoms: _83  and  _85
REMARK   36  A    between atoms: _85  and  _86
REMARK   37  A    between atoms: _85  and  _88
REMARK   38  A    between atoms: _88  and  _89
REMARK   39  A    between atoms: _94  and  _96
REMARK   40  A    between atoms: _96  and  _97
REMARK   41  A    between atoms: _99  and  _101
REMARK   42  A    between atoms: _101  and  _102
REMARK   43  A    between atoms: _101  and  _104
REMARK   44  A    between atoms: _104  and  _105
REMARK   45  A    between atoms: _105  and  _106
REMARK   46  A    between atoms: _108  and  _110
REMARK   47  A    between atoms: _110  and  _111
REMARK   48  A    between atoms: _110  and  _113
REMARK   49  A    between atoms: _113  and  _114
REMARK   50  A    between atoms: _117  and  _119
REMARK   51  A    between atoms: _119  and  _120
REMARK   52  A    between atoms: _119  and  _122
REMARK   53  A    between atoms: _122  and  _123
REMARK   54  A    between atoms: _123  and  _124
REMARK   55  A    between atoms: _127  and  _129
REMARK   56  A    between atoms: _129  and  _130
REMARK   57  A    between atoms: _129  and  _132
REMARK   58  A    between atoms: _132  and  _133
REMARK   59  A    between atoms: _133  and  _134
REMARK   60  A    between atoms: _136  and  _138
REMARK   61  A    between atoms: _138  and  _139
REMARK   62  A    between atoms: _138  and  _141
REMARK   63  A    between atoms: _141  and  _142
REMARK   64  A    between atoms: _152  and  _154
REMARK   65  A    between atoms: _154  and  _155
REMARK   66  A    between atoms: _154  and  _157
REMARK   67  A    between atoms: _157  and  _158
REMARK   68  A    between atoms: _160  and  _162
REMARK   69  A    between atoms: _162  and  _163
REMARK   70  A    between atoms: _162  and  _165
REMARK   71  A    between atoms: _165  and  _166
REMARK   72  A    between atoms: _169  and  _171
REMARK   73  A    between atoms: _171  and  _172
REMARK   74  A    between atoms: _171  and  _174
REMARK   75  A    between atoms: _174  and  _175
REMARK   76  A    between atoms: _175  and  _176
REMARK   77  A    between atoms: _176  and  _177
REMARK   78  A    between atoms: _177  and  _178
REMARK   79  A    between atoms: _182  and  _184
REMARK   80  A    between atoms: _184  and  _185
REMARK   81  A    between atoms: _184  and  _187
REMARK   82  A    between atoms: _187  and  _188
REMARK   83  A    between atoms: _193  and  _194
REMARK   84  A    between atoms: _196  and  _198
REMARK   85  A    between atoms: _198  and  _199
REMARK   86  A    between atoms: _198  and  _201
REMARK   87  A    between atoms: _204  and  _206
REMARK   88  A    between atoms: _206  and  _207
REMARK   89  A    between atoms: _206  and  _209
REMARK   90  A    between atoms: _209  and  _210
REMARK   91  A    between atoms: _215  and  _216
REMARK   92  A    between atoms: _218  and  _220
REMARK   93  A    between atoms: _220  and  _221
REMARK   94  A    between atoms: _220  and  _223
REMARK   95  A    between atoms: _223  and  _224
REMARK   96  A    between atoms: _234  and  _236
REMARK   97  A    between atoms: _236  and  _237
REMARK   98  A    between atoms: _236  and  _239
REMARK   99  A    between atoms: _239  and  _240
REMARK  100  A    between atoms: _243  and  _245
REMARK  101  A    between atoms: _245  and  _246
REMARK  102  A    between atoms: _245  and  _248
REMARK  103  A    between atoms: _248  and  _249
REMARK  104  A    between atoms: _254  and  _255
REMARK  105  A    between atoms: _257  and  _259
REMARK  106  A    between atoms: _259  and  _260
REMARK  107  A    between atoms: _259  and  _262
REMARK  108  A    between atoms: _262  and  _263
REMARK  109  A    between atoms: _268  and  _269
REMARK  110  A    between atoms: _271  and  _273
REMARK  111  A    between atoms: _273  and  _274
REMARK  112  A    between atoms: _277  and  _279
REMARK  113  A    between atoms: _279  and  _280
REMARK  114  A    between atoms: _279  and  _282
REMARK  115  A    between atoms: _282  and  _283
REMARK  116  A    between atoms: _293  and  _295
REMARK  117  A    between atoms: _295  and  _296
REMARK  118  A    between atoms: _295  and  _298
REMARK  119  A    between atoms: _298  and  _299
REMARK  120  A    between atoms: _299  and  _300
REMARK  121  A    between atoms: _300  and  _301
REMARK  122  A    between atoms: _301  and  _302
REMARK  123  A    between atoms: _306  and  _308
REMARK  124  A    between atoms: _308  and  _309
REMARK  125  A    between atoms: _308  and  _311
REMARK  126  A    between atoms: _311  and  _312
REMARK  127  A    between atoms: _322  and  _324
REMARK  128  A    between atoms: _324  and  _325
REMARK  129  A    between atoms: _324  and  _327
REMARK  130  A    between atoms: _327  and  _328
REMARK  131  A    between atoms: _331  and  _333
REMARK  132  A    between atoms: _333  and  _334
REMARK  133  A    between atoms: _333  and  _336
REMARK  134  A    between atoms: _336  and  _337
REMARK  135  A    between atoms: _340  and  _342
REMARK  136  A    between atoms: _342  and  _343
REMARK  137  A    between atoms: _345  and  _347
REMARK  138  A    between atoms: _347  and  _348
REMARK  139  A    between atoms: _347  and  _350
REMARK  140  A    between atoms: _350  and  _351
REMARK  141  A    between atoms: _361  and  _363
REMARK  142  A    between atoms: _363  and  _364
REMARK  143  A    between atoms: _366  and  _368
REMARK  144  A    between atoms: _368  and  _369
REMARK  145  A    between atoms: _368  and  _371
REMARK  146  A    between atoms: _371  and  _372
REMARK  147  A    between atoms: _375  and  _377
REMARK  148  A    between atoms: _377  and  _378
REMARK  149  A    between atoms: _377  and  _380
REMARK  150  A    between atoms: _380  and  _381
REMARK  151  A    between atoms: _386  and  _388
REMARK  152  A    between atoms: _388  and  _389
REMARK  153  A    between atoms: _388  and  _391
REMARK  154  A    between atoms: _391  and  _392
REMARK  155  A    between atoms: _397  and  _399
REMARK  156  A    between atoms: _399  and  _400
REMARK  157  A    between atoms: _399  and  _402
REMARK  158  A    between atoms: _402  and  _403
REMARK                            x       y       z     vdW  Elec       q    Type
REMARK                         _______ _______ _______ _____ _____    ______ ____
ROOT
ATOM      1  O   HOH     1      21.231  10.573  35.291  0.00  0.00    +0.000 OA
ENDROOT
TORSDOF 0
REMARK  Name = ../refined-set-2016/2epn/2epn_pocket.pdb
REMARK  158 active torsions:
REMARK  status: ('A' for Active; 'I' for Inactive)
REMARK    1  A    between atoms: _1  and  _3
REMARK    2  A    between atoms: _3  and  _4
REMARK    3  A    between atoms: _3  and  _6
REMARK    4  A    between atoms: _6  and  _7
REMARK    5  A    between atoms: _7  and  _8
REMARK    6  A    between atoms: _10  and  _12
REMARK    7  A    between atoms: _12  and  _13
REMARK    8  A    between atoms: _12  and  _15
REMARK    9  A    between atoms: _15  and  _16
REMARK   10  A    between atoms: _19  and  _21
REMARK   11  A    between atoms: _21  and  _22
REMARK   12  A    between atoms: _21  and  _24
REMARK   13  A    between atoms: _24  and  _25
REMARK   14  A    between atoms: _25  and  _26
REMARK   15  A    between atoms: _26  and  _27
REMARK   16  A    between atoms: _36  and  _38
REMARK   17  A    between atoms: _38  and  _39
REMARK   18  A    between atoms: _38  and  _41
REMARK   19  A    between atoms: _41  and  _42
REMARK   20  A    between atoms: _47  and  _48
REMARK   21  A    between atoms: _50  and  _52
REMARK   22  A    between atoms: _52  and  _53
REMARK   23  A    between atoms: _52  and  _55
REMARK   24  A    between atoms: _55  and  _56
REMARK   25  A    between atoms: _56  and  _57
REMARK   26  A    between atoms: _60  and  _62
REMARK   27  A    between atoms: _62  and  _63
REMARK   28  A    between atoms: _62  and  _65
REMARK   29  A    between atoms: _65  and  _66
REMARK   30  A    between atoms: _66  and  _67
REMARK   31  A    between atoms: _72  and  _74
REMARK   32  A    between atoms: _74  and  _75
REMARK   33  A    between atoms: _74  and  _77
REMARK   34  A    between atoms: _77  and  _78
REMARK   35  A    between atoms: _83  and  _85
REMARK   36  A    between atoms: _85  and  _86
REMARK   37  A    between atoms: _85  and  _88
REMARK   38  A    between atoms: _88  and  _89
REMARK   39  A    between atoms: _94  and  _96
REMARK   40  A    between atoms: _96  and  _97
REMARK   41  A    between atoms: _99  and  _101
REMARK   42  A    between atoms: _101  and  _102
REMARK   43  A    between atoms: _101  and  _104
REMARK   44  A    between atoms: _104  and  _105
REMARK   45  A    between atoms: _105  and  _106
REMARK   46  A    between atoms: _108  and  _110
REMARK   47  A    between atoms: _110  and  _111
REMARK   48  A    between atoms: _110  and  _113
REMARK   49  A    between atoms: _113  and  _114
REMARK   50  A    between atoms: _117  and  _119
REMARK   51  A    between atoms: _119  and  _120
REMARK   52  A    between atoms: _119  and  _122
REMARK   53  A    between atoms: _122  and  _123
REMARK   54  A    between atoms: _123  and  _124
REMARK   55  A    between atoms: _127  and  _129
REMARK   56  A    between atoms: _129  and  _130
REMARK   57  A    between atoms: _129  and  _132
REMARK   58  A    between atoms: _132  and  _133
REMARK   59  A    between atoms: _133  and  _134
REMARK   60  A    between atoms: _136  and  _138
REMARK   61  A    between atoms: _138  and  _139
REMARK   62  A    between atoms: _138  and  _141
REMARK   63  A    between atoms: _141  and  _142
REMARK   64  A    between atoms: _152  and  _154
REMARK   65  A    between atoms: _154  and  _155
REMARK   66  A    between atoms: _154  and  _157
REMARK   67  A    between atoms: _157  and  _158
REMARK   68  A    between atoms: _160  and  _162
REMARK   69  A    between atoms: _162  and  _163
REMARK   70  A    between atoms: _162  and  _165
REMARK   71  A    between atoms: _165  and  _166
REMARK   72  A    between atoms: _169  and  _171
REMARK   73  A    between atoms: _171  and  _172
REMARK   74  A    between atoms: _171  and  _174
REMARK   75  A    between atoms: _174  and  _175
REMARK   76  A    between atoms: _175  and  _176
REMARK   77  A    between atoms: _176  and  _177
REMARK   78  A    between atoms: _177  and  _178
REMARK   79  A    between atoms: _182  and  _184
REMARK   80  A    between atoms: _184  and  _185
REMARK   81  A    between atoms: _184  and  _187
REMARK   82  A    between atoms: _187  and  _188
REMARK   83  A    between atoms: _193  and  _194
REMARK   84  A    between atoms: _196  and  _198
REMARK   85  A    between atoms: _198  and  _199
REMARK   86  A    between atoms: _198  and  _201
REMARK   87  A    between atoms: _204  and  _206
REMARK   88  A    between atoms: _206  and  _207
REMARK   89  A    between atoms: _206  and  _209
REMARK   90  A    between atoms: _209  and  _210
REMARK   91  A    between atoms: _215  and  _216
REMARK   92  A    between atoms: _218  and  _220
REMARK   93  A    between atoms: _220  and  _221
REMARK   94  A    between atoms: _220  and  _223
REMARK   95  A    between atoms: _223  and  _224
REMARK   96  A    between atoms: _234  and  _236
REMARK   97  A    between atoms: _236  and  _237
REMARK   98  A    between atoms: _236  and  _239
REMARK   99  A    between atoms: _239  and  _240
REMARK  100  A    between atoms: _243  and  _245
REMARK  101  A    between atoms: _245  and  _246
REMARK  102  A    between atoms: _245  and  _248
REMARK  103  A    between atoms: _248  and  _249
REMARK  104  A    between atoms: _254  and  _255
REMARK  105  A    between atoms: _257  and  _259
REMARK  106  A    between atoms: _259  and  _260
REMARK  107  A    between atoms: _259  and  _262
REMARK  108  A    between atoms: _262  and  _263
REMARK  109  A    between atoms: _268  and  _269
REMARK  110  A    between atoms: _271  and  _273
REMARK  111  A    between atoms: _273  and  _274
REMARK  112  A    between atoms: _277  and  _279
REMARK  113  A    between atoms: _279  and  _280
REMARK  114  A    between atoms: _279  and  _282
REMARK  115  A    between atoms: _282  and  _283
REMARK  116  A    between atoms: _293  and  _295
REMARK  117  A    between atoms: _295  and  _296
REMARK  118  A    between atoms: _295  and  _298
REMARK  119  A    between atoms: _298  and  _299
REMARK  120  A    between atoms: _299  and  _300
REMARK  121  A    between atoms: _300  and  _301
REMARK  122  A    between atoms: _301  and  _302
REMARK  123  A    between atoms: _306  and  _308
REMARK  124  A    between atoms: _308  and  _309
REMARK  125  A    between atoms: _308  and  _311
REMARK  126  A    between atoms: _311  and  _312
REMARK  127  A    between atoms: _322  and  _324
REMARK  128  A    between atoms: _324  and  _325
REMARK  129  A    between atoms: _324  and  _327
REMARK  130  A    between atoms: _327  and  _328
REMARK  131  A    between atoms: _331  and  _333
REMARK  132  A    between atoms: _333  and  _334
REMARK  133  A    between atoms: _333  and  _336
REMARK  134  A    between atoms: _336  and  _337
REMARK  135  A    between atoms: _340  and  _342
REMARK  136  A    between atoms: _342  and  _343
REMARK  137  A    between atoms: _345  and  _347
REMARK  138  A    between atoms: _347  and  _348
REMARK  139  A    between atoms: _347  and  _350
REMARK  140  A    between atoms: _350  and  _351
REMARK  141  A    between atoms: _361  and  _363
REMARK  142  A    between atoms: _363  and  _364
REMARK  143  A    between atoms: _366  and  _368
REMARK  144  A    between atoms: _368  and  _369
REMARK  145  A    between atoms: _368  and  _371
REMARK  146  A    between atoms: _371  and  _372
REMARK  147  A    between atoms: _375  and  _377
REMARK  148  A    between atoms: _377  and  _378
REMARK  149  A    between atoms: _377  and  _380
REMARK  150  A    between atoms: _380  and  _381
REMARK  151  A    between atoms: _386  and  _388
REMARK  152  A    between atoms: _388  and  _389
REMARK  153  A    between atoms: _388  and  _391
REMARK  154  A    between atoms: _391  and  _392
REMARK  155  A    between atoms: _397  and  _399
REMARK  156  A    between atoms: _399  and  _400
REMARK  157  A    between atoms: _399  and  _402
REMARK  158  A    between atoms: _402  and  _403
REMARK                            x       y       z     vdW  Elec       q    Type
REMARK                         _______ _______ _______ _____ _____    ______ ____
ROOT
ATOM      1  O   HOH     1      20.106   1.513  36.606  0.00  0.00    +0.000 OA
ENDROOT
TORSDOF 0
REMARK  Name = ../refined-set-2016/2epn/2epn_pocket.pdb
REMARK  158 active torsions:
REMARK  status: ('A' for Active; 'I' for Inactive)
REMARK    1  A    between atoms: _1  and  _3
REMARK    2  A    between atoms: _3  and  _4
REMARK    3  A    between atoms: _3  and  _6
REMARK    4  A    between atoms: _6  and  _7
REMARK    5  A    between atoms: _7  and  _8
REMARK    6  A    between atoms: _10  and  _12
REMARK    7  A    between atoms: _12  and  _13
REMARK    8  A    between atoms: _12  and  _15
REMARK    9  A    between atoms: _15  and  _16
REMARK   10  A    between atoms: _19  and  _21
REMARK   11  A    between atoms: _21  and  _22
REMARK   12  A    between atoms: _21  and  _24
REMARK   13  A    between atoms: _24  and  _25
REMARK   14  A    between atoms: _25  and  _26
REMARK   15  A    between atoms: _26  and  _27
REMARK   16  A    between atoms: _36  and  _38
REMARK   17  A    between atoms: _38  and  _39
REMARK   18  A    between atoms: _38  and  _41
REMARK   19  A    between atoms: _41  and  _42
REMARK   20  A    between atoms: _47  and  _48
REMARK   21  A    between atoms: _50  and  _52
REMARK   22  A    between atoms: _52  and  _53
REMARK   23  A    between atoms: _52  and  _55
REMARK   24  A    between atoms: _55  and  _56
REMARK   25  A    between atoms: _56  and  _57
REMARK   26  A    between atoms: _60  and  _62
REMARK   27  A    between atoms: _62  and  _63
REMARK   28  A    between atoms: _62  and  _65
REMARK   29  A    between atoms: _65  and  _66
REMARK   30  A    between atoms: _66  and  _67
REMARK   31  A    between atoms: _72  and  _74
REMARK   32  A    between atoms: _74  and  _75
REMARK   33  A    between atoms: _74  and  _77
REMARK   34  A    between atoms: _77  and  _78
REMARK   35  A    between atoms: _83  and  _85
REMARK   36  A    between atoms: _85  and  _86
REMARK   37  A    between atoms: _85  and  _88
REMARK   38  A    between atoms: _88  and  _89
REMARK   39  A    between atoms: _94  and  _96
REMARK   40  A    between atoms: _96  and  _97
REMARK   41  A    between atoms: _99  and  _101
REMARK   42  A    between atoms: _101  and  _102
REMARK   43  A    between atoms: _101  and  _104
REMARK   44  A    between atoms: _104  and  _105
REMARK   45  A    between atoms: _105  and  _106
REMARK   46  A    between atoms: _108  and  _110
REMARK   47  A    between atoms: _110  and  _111
REMARK   48  A    between atoms: _110  and  _113
REMARK   49  A    between atoms: _113  and  _114
REMARK   50  A    between atoms: _117  and  _119
REMARK   51  A    between atoms: _119  and  _120
REMARK   52  A    between atoms: _119  and  _122
REMARK   53  A    between atoms: _122  and  _123
REMARK   54  A    between atoms: _123  and  _124
REMARK   55  A    between atoms: _127  and  _129
REMARK   56  A    between atoms: _129  and  _130
REMARK   57  A    between atoms: _129  and  _132
REMARK   58  A    between atoms: _132  and  _133
REMARK   59  A    between atoms: _133  and  _134
REMARK   60  A    between atoms: _136  and  _138
REMARK   61  A    between atoms: _138  and  _139
REMARK   62  A    between atoms: _138  and  _141
REMARK   63  A    between atoms: _141  and  _142
REMARK   64  A    between atoms: _152  and  _154
REMARK   65  A    between atoms: _154  and  _155
REMARK   66  A    between atoms: _154  and  _157
REMARK   67  A    between atoms: _157  and  _158
REMARK   68  A    between atoms: _160  and  _162
REMARK   69  A    between atoms: _162  and  _163
REMARK   70  A    between atoms: _162  and  _165
REMARK   71  A    between atoms: _165  and  _166
REMARK   72  A    between atoms: _169  and  _171
REMARK   73  A    between atoms: _171  and  _172
REMARK   74  A    between atoms: _171  and  _174
REMARK   75  A    between atoms: _174  and  _175
REMARK   76  A    between atoms: _175  and  _176
REMARK   77  A    between atoms: _176  and  _177
REMARK   78  A    between atoms: _177  and  _178
REMARK   79  A    between atoms: _182  and  _184
REMARK   80  A    between atoms: _184  and  _185
REMARK   81  A    between atoms: _184  and  _187
REMARK   82  A    between atoms: _187  and  _188
REMARK   83  A    between atoms: _193  and  _194
REMARK   84  A    between atoms: _196  and  _198
REMARK   85  A    between atoms: _198  and  _199
REMARK   86  A    between atoms: _198  and  _201
REMARK   87  A    between atoms: _204  and  _206
REMARK   88  A    between atoms: _206  and  _207
REMARK   89  A    between atoms: _206  and  _209
REMARK   90  A    between atoms: _209  and  _210
REMARK   91  A    between atoms: _215  and  _216
REMARK   92  A    between atoms: _218  and  _220
REMARK   93  A    between atoms: _220  and  _221
REMARK   94  A    between atoms: _220  and  _223
REMARK   95  A    between atoms: _223  and  _224
REMARK   96  A    between atoms: _234  and  _236
REMARK   97  A    between atoms: _236  and  _237
REMARK   98  A    between atoms: _236  and  _239
REMARK   99  A    between atoms: _239  and  _240
REMARK  100  A    between atoms: _243  and  _245
REMARK  101  A    between atoms: _245  and  _246
REMARK  102  A    between atoms: _245  and  _248
REMARK  103  A    between atoms: _248  and  _249
REMARK  104  A    between atoms: _254  and  _255
REMARK  105  A    between atoms: _257  and  _259
REMARK  106  A    between atoms: _259  and  _260
REMARK  107  A    between atoms: _259  and  _262
REMARK  108  A    between atoms: _262  and  _263
REMARK  109  A    between atoms: _268  and  _269
REMARK  110  A    between atoms: _271  and  _273
REMARK  111  A    between atoms: _273  and  _274
REMARK  112  A    between atoms: _277  and  _279
REMARK  113  A    between atoms: _279  and  _280
REMARK  114  A    between atoms: _279  and  _282
REMARK  115  A    between atoms: _282  and  _283
REMARK  116  A    between atoms: _293  and  _295
REMARK  117  A    between atoms: _295  and  _296
REMARK  118  A    between atoms: _295  and  _298
REMARK  119  A    between atoms: _298  and  _299
REMARK  120  A    between atoms: _299  and  _300
REMARK  121  A    between atoms: _300  and  _301
REMARK  122  A    between atoms: _301  and  _302
REMARK  123  A    between atoms: _306  and  _308
REMARK  124  A    between atoms: _308  and  _309
REMARK  125  A    between atoms: _308  and  _311
REMARK  126  A    between atoms: _311  and  _312
REMARK  127  A    between atoms: _322  and  _324
REMARK  128  A    between atoms: _324  and  _325
REMARK  129  A    between atoms: _324  and  _327
REMARK  130  A    between atoms: _327  and  _328
REMARK  131  A    between atoms: _331  and  _333
REMARK  132  A    between atoms: _333  and  _334
REMARK  133  A    between atoms: _333  and  _336
REMARK  134  A    between atoms: _336  and  _337
REMARK  135  A    between atoms: _340  and  _342
REMARK  136  A    between atoms: _342  and  _343
REMARK  137  A    between atoms: _345  and  _347
REMARK  138  A    between atoms: _347  and  _348
REMARK  139  A    between atoms: _347  and  _350
REMARK  140  A    between atoms: _350  and  _351
REMARK  141  A    between atoms: _361  and  _363
REMARK  142  A    between atoms: _363  and  _364
REMARK  143  A    between atoms: _366  and  _368
REMARK  144  A    between atoms: _368  and  _369
REMARK  145  A    between atoms: _368  and  _371
REMARK  146  A    between atoms: _371  and  _372
REMARK  147  A    between atoms: _375  and  _377
REMARK  148  A    between atoms: _377  and  _378
REMARK  149  A    between atoms: _377  and  _380
REMARK  150  A    between atoms: _380  and  _381
REMARK  151  A    between atoms: _386  and  _388
REMARK  152  A    between atoms: _388  and  _389
REMARK  153  A    between atoms: _388  and  _391
REMARK  154  A    between atoms: _391  and  _392
REMARK  155  A    between atoms: _397  and  _399
REMARK  156  A    between atoms: _399  and  _400
REMARK  157  A    between atoms: _399  and  _402
REMARK  158  A    between atoms: _402  and  _403
REMARK                            x       y       z     vdW  Elec       q    Type
REMARK                         _______ _______ _______ _____ _____    ______ ____
ROOT
ATOM      1  O   HOH     1      18.326   2.749  38.269  0.00  0.00    +0.000 OA
ENDROOT
TORSDOF 0
REMARK  Name = ../refined-set-2016/2epn/2epn_pocket.pdb
REMARK  158 active torsions:
REMARK  status: ('A' for Active; 'I' for Inactive)
REMARK    1  A    between atoms: _1  and  _3
REMARK    2  A    between atoms: _3  and  _4
REMARK    3  A    between atoms: _3  and  _6
REMARK    4  A    between atoms: _6  and  _7
REMARK    5  A    between atoms: _7  and  _8
REMARK    6  A    between atoms: _10  and  _12
REMARK    7  A    between atoms: _12  and  _13
REMARK    8  A    between atoms: _12  and  _15
REMARK    9  A    between atoms: _15  and  _16
REMARK   10  A    between atoms: _19  and  _21
REMARK   11  A    between atoms: _21  and  _22
REMARK   12  A    between atoms: _21  and  _24
REMARK   13  A    between atoms: _24  and  _25
REMARK   14  A    between atoms: _25  and  _26
REMARK   15  A    between atoms: _26  and  _27
REMARK   16  A    between atoms: _36  and  _38
REMARK   17  A    between atoms: _38  and  _39
REMARK   18  A    between atoms: _38  and  _41
REMARK   19  A    between atoms: _41  and  _42
REMARK   20  A    between atoms: _47  and  _48
REMARK   21  A    between atoms: _50  and  _52
REMARK   22  A    between atoms: _52  and  _53
REMARK   23  A    between atoms: _52  and  _55
REMARK   24  A    between atoms: _55  and  _56
REMARK   25  A    between atoms: _56  and  _57
REMARK   26  A    between atoms: _60  and  _62
REMARK   27  A    between atoms: _62  and  _63
REMARK   28  A    between atoms: _62  and  _65
REMARK   29  A    between atoms: _65  and  _66
REMARK   30  A    between atoms: _66  and  _67
REMARK   31  A    between atoms: _72  and  _74
REMARK   32  A    between atoms: _74  and  _75
REMARK   33  A    between atoms: _74  and  _77
REMARK   34  A    between atoms: _77  and  _78
REMARK   35  A    between atoms: _83  and  _85
REMARK   36  A    between atoms: _85  and  _86
REMARK   37  A    between atoms: _85  and  _88
REMARK   38  A    between atoms: _88  and  _89
REMARK   39  A    between atoms: _94  and  _96
REMARK   40  A    between atoms: _96  and  _97
REMARK   41  A    between atoms: _99  and  _101
REMARK   42  A    between atoms: _101  and  _102
REMARK   43  A    between atoms: _101  and  _104
REMARK   44  A    between atoms: _104  and  _105
REMARK   45  A    between atoms: _105  and  _106
REMARK   46  A    between atoms: _108  and  _110
REMARK   47  A    between atoms: _110  and  _111
REMARK   48  A    between atoms: _110  and  _113
REMARK   49  A    between atoms: _113  and  _114
REMARK   50  A    between atoms: _117  and  _119
REMARK   51  A    between atoms: _119  and  _120
REMARK   52  A    between atoms: _119  and  _122
REMARK   53  A    between atoms: _122  and  _123
REMARK   54  A    between atoms: _123  and  _124
REMARK   55  A    between atoms: _127  and  _129
REMARK   56  A    between atoms: _129  and  _130
REMARK   57  A    between atoms: _129  and  _132
REMARK   58  A    between atoms: _132  and  _133
REMARK   59  A    between atoms: _133  and  _134
REMARK   60  A    between atoms: _136  and  _138
REMARK   61  A    between atoms: _138  and  _139
REMARK   62  A    between atoms: _138  and  _141
REMARK   63  A    between atoms: _141  and  _142
REMARK   64  A    between atoms: _152  and  _154
REMARK   65  A    between atoms: _154  and  _155
REMARK   66  A    between atoms: _154  and  _157
REMARK   67  A    between atoms: _157  and  _158
REMARK   68  A    between atoms: _160  and  _162
REMARK   69  A    between atoms: _162  and  _163
REMARK   70  A    between atoms: _162  and  _165
REMARK   71  A    between atoms: _165  and  _166
REMARK   72  A    between atoms: _169  and  _171
REMARK   73  A    between atoms: _171  and  _172
REMARK   74  A    between atoms: _171  and  _174
REMARK   75  A    between atoms: _174  and  _175
REMARK   76  A    between atoms: _175  and  _176
REMARK   77  A    between atoms: _176  and  _177
REMARK   78  A    between atoms: _177  and  _178
REMARK   79  A    between atoms: _182  and  _184
REMARK   80  A    between atoms: _184  and  _185
REMARK   81  A    between atoms: _184  and  _187
REMARK   82  A    between atoms: _187  and  _188
REMARK   83  A    between atoms: _193  and  _194
REMARK   84  A    between atoms: _196  and  _198
REMARK   85  A    between atoms: _198  and  _199
REMARK   86  A    between atoms: _198  and  _201
REMARK   87  A    between atoms: _204  and  _206
REMARK   88  A    between atoms: _206  and  _207
REMARK   89  A    between atoms: _206  and  _209
REMARK   90  A    between atoms: _209  and  _210
REMARK   91  A    between atoms: _215  and  _216
REMARK   92  A    between atoms: _218  and  _220
REMARK   93  A    between atoms: _220  and  _221
REMARK   94  A    between atoms: _220  and  _223
REMARK   95  A    between atoms: _223  and  _224
REMARK   96  A    between atoms: _234  and  _236
REMARK   97  A    between atoms: _236  and  _237
REMARK   98  A    between atoms: _236  and  _239
REMARK   99  A    between atoms: _239  and  _240
REMARK  100  A    between atoms: _243  and  _245
REMARK  101  A    between atoms: _245  and  _246
REMARK  102  A    between atoms: _245  and  _248
REMARK  103  A    between atoms: _248  and  _249
REMARK  104  A    between atoms: _254  and  _255
REMARK  105  A    between atoms: _257  and  _259
REMARK  106  A    between atoms: _259  and  _260
REMARK  107  A    between atoms: _259  and  _262
REMARK  108  A    between atoms: _262  and  _263
REMARK  109  A    between atoms: _268  and  _269
REMARK  110  A    between atoms: _271  and  _273
REMARK  111  A    between atoms: _273  and  _274
REMARK  112  A    between atoms: _277  and  _279
REMARK  113  A    between atoms: _279  and  _280
REMARK  114  A    between atoms: _279  and  _282
REMARK  115  A    between atoms: _282  and  _283
REMARK  116  A    between atoms: _293  and  _295
REMARK  117  A    between atoms: _295  and  _296
REMARK  118  A    between atoms: _295  and  _298
REMARK  119  A    between atoms: _298  and  _299
REMARK  120  A    between atoms: _299  and  _300
REMARK  121  A    between atoms: _300  and  _301
REMARK  122  A    between atoms: _301  and  _302
REMARK  123  A    between atoms: _306  and  _308
REMARK  124  A    between atoms: _308  and  _309
REMARK  125  A    between atoms: _308  and  _311
REMARK  126  A    between atoms: _311  and  _312
REMARK  127  A    between atoms: _322  and  _324
REMARK  128  A    between atoms: _324  and  _325
REMARK  129  A    between atoms: _324  and  _327
REMARK  130  A    between atoms: _327  and  _328
REMARK  131  A    between atoms: _331  and  _333
REMARK  132  A    between atoms: _333  and  _334
REMARK  133  A    between atoms: _333  and  _336
REMARK  134  A    between atoms: _336  and  _337
REMARK  135  A    between atoms: _340  and  _342
REMARK  136  A    between atoms: _342  and  _343
REMARK  137  A    between atoms: _345  and  _347
REMARK  138  A    between atoms: _347  and  _348
REMARK  139  A    between atoms: _347  and  _350
REMARK  140  A    between atoms: _350  and  _351
REMARK  141  A    between atoms: _361  and  _363
REMARK  142  A    between atoms: _363  and  _364
REMARK  143  A    between atoms: _366  and  _368
REMARK  144  A    between atoms: _368  and  _369
REMARK  145  A    between atoms: _368  and  _371
REMARK  146  A    between atoms: _371  and  _372
REMARK  147  A    between atoms: _375  and  _377
REMARK  148  A    between atoms: _377  and  _378
REMARK  149  A    between atoms: _377  and  _380
REMARK  150  A    between atoms: _380  and  _381
REMARK  151  A    between atoms: _386  and  _388
REMARK  152  A    between atoms: _388  and  _389
REMARK  153  A    between atoms: _388  and  _391
REMARK  154  A    between atoms: _391  and  _392
REMARK  155  A    between atoms: _397  and  _399
REMARK  156  A    between atoms: _399  and  _400
REMARK  157  A    between atoms: _399  and  _402
REMARK  158  A    between atoms: _402  and  _403
REMARK                            x       y       z     vdW  Elec       q    Type
REMARK                         _______ _______ _______ _____ _____    ______ ____
ROOT
ATOM      1  O   HOH     1      16.799  13.499  35.083  0.00  0.00    +0.000 OA
ENDROOT
TORSDOF 0
REMARK  Name = ../refined-set-2016/2epn/2epn_pocket.pdb
REMARK  158 active torsions:
REMARK  status: ('A' for Active; 'I' for Inactive)
REMARK    1  A    between atoms: _1  and  _3
REMARK    2  A    between atoms: _3  and  _4
REMARK    3  A    between atoms: _3  and  _6
REMARK    4  A    between atoms: _6  and  _7
REMARK    5  A    between atoms: _7  and  _8
REMARK    6  A    between atoms: _10  and  _12
REMARK    7  A    between atoms: _12  and  _13
REMARK    8  A    between atoms: _12  and  _15
REMARK    9  A    between atoms: _15  and  _16
REMARK   10  A    between atoms: _19  and  _21
REMARK   11  A    between atoms: _21  and  _22
REMARK   12  A    between atoms: _21  and  _24
REMARK   13  A    between atoms: _24  and  _25
REMARK   14  A    between atoms: _25  and  _26
REMARK   15  A    between atoms: _26  and  _27
REMARK   16  A    between atoms: _36  and  _38
REMARK   17  A    between atoms: _38  and  _39
REMARK   18  A    between atoms: _38  and  _41
REMARK   19  A    between atoms: _41  and  _42
REMARK   20  A    between atoms: _47  and  _48
REMARK   21  A    between atoms: _50  and  _52
REMARK   22  A    between atoms: _52  and  _53
REMARK   23  A    between atoms: _52  and  _55
REMARK   24  A    between atoms: _55  and  _56
REMARK   25  A    between atoms: _56  and  _57
REMARK   26  A    between atoms: _60  and  _62
REMARK   27  A    between atoms: _62  and  _63
REMARK   28  A    between atoms: _62  and  _65
REMARK   29  A    between atoms: _65  and  _66
REMARK   30  A    between atoms: _66  and  _67
REMARK   31  A    between atoms: _72  and  _74
REMARK   32  A    between atoms: _74  and  _75
REMARK   33  A    between atoms: _74  and  _77
REMARK   34  A    between atoms: _77  and  _78
REMARK   35  A    between atoms: _83  and  _85
REMARK   36  A    between atoms: _85  and  _86
REMARK   37  A    between atoms: _85  and  _88
REMARK   38  A    between atoms: _88  and  _89
REMARK   39  A    between atoms: _94  and  _96
REMARK   40  A    between atoms: _96  and  _97
REMARK   41  A    between atoms: _99  and  _101
REMARK   42  A    between atoms: _101  and  _102
REMARK   43  A    between atoms: _101  and  _104
REMARK   44  A    between atoms: _104  and  _105
REMARK   45  A    between atoms: _105  and  _106
REMARK   46  A    between atoms: _108  and  _110
REMARK   47  A    between atoms: _110  and  _111
REMARK   48  A    between atoms: _110  and  _113
REMARK   49  A    between atoms: _113  and  _114
REMARK   50  A    between atoms: _117  and  _119
REMARK   51  A    between atoms: _119  and  _120
REMARK   52  A    between atoms: _119  and  _122
REMARK   53  A    between atoms: _122  and  _123
REMARK   54  A    between atoms: _123  and  _124
REMARK   55  A    between atoms: _127  and  _129
REMARK   56  A    between atoms: _129  and  _130
REMARK   57  A    between atoms: _129  and  _132
REMARK   58  A    between atoms: _132  and  _133
REMARK   59  A    between atoms: _133  and  _134
REMARK   60  A    between atoms: _136  and  _138
REMARK   61  A    between atoms: _138  and  _139
REMARK   62  A    between atoms: _138  and  _141
REMARK   63  A    between atoms: _141  and  _142
REMARK   64  A    between atoms: _152  and  _154
REMARK   65  A    between atoms: _154  and  _155
REMARK   66  A    between atoms: _154  and  _157
REMARK   67  A    between atoms: _157  and  _158
REMARK   68  A    between atoms: _160  and  _162
REMARK   69  A    between atoms: _162  and  _163
REMARK   70  A    between atoms: _162  and  _165
REMARK   71  A    between atoms: _165  and  _166
REMARK   72  A    between atoms: _169  and  _171
REMARK   73  A    between atoms: _171  and  _172
REMARK   74  A    between atoms: _171  and  _174
REMARK   75  A    between atoms: _174  and  _175
REMARK   76  A    between atoms: _175  and  _176
REMARK   77  A    between atoms: _176  and  _177
REMARK   78  A    between atoms: _177  and  _178
REMARK   79  A    between atoms: _182  and  _184
REMARK   80  A    between atoms: _184  and  _185
REMARK   81  A    between atoms: _184  and  _187
REMARK   82  A    between atoms: _187  and  _188
REMARK   83  A    between atoms: _193  and  _194
REMARK   84  A    between atoms: _196  and  _198
REMARK   85  A    between atoms: _198  and  _199
REMARK   86  A    between atoms: _198  and  _201
REMARK   87  A    between atoms: _204  and  _206
REMARK   88  A    between atoms: _206  and  _207
REMARK   89  A    between atoms: _206  and  _209
REMARK   90  A    between atoms: _209  and  _210
REMARK   91  A    between atoms: _215  and  _216
REMARK   92  A    between atoms: _218  and  _220
REMARK   93  A    between atoms: _220  and  _221
REMARK   94  A    between atoms: _220  and  _223
REMARK   95  A    between atoms: _223  and  _224
REMARK   96  A    between atoms: _234  and  _236
REMARK   97  A    between atoms: _236  and  _237
REMARK   98  A    between atoms: _236  and  _239
REMARK   99  A    between atoms: _239  and  _240
REMARK  100  A    between atoms: _243  and  _245
REMARK  101  A    between atoms: _245  and  _246
REMARK  102  A    between atoms: _245  and  _248
REMARK  103  A    between atoms: _248  and  _249
REMARK  104  A    between atoms: _254  and  _255
REMARK  105  A    between atoms: _257  and  _259
REMARK  106  A    between atoms: _259  and  _260
REMARK  107  A    between atoms: _259  and  _262
REMARK  108  A    between atoms: _262  and  _263
REMARK  109  A    between atoms: _268  and  _269
REMARK  110  A    between atoms: _271  and  _273
REMARK  111  A    between atoms: _273  and  _274
REMARK  112  A    between atoms: _277  and  _279
REMARK  113  A    between atoms: _279  and  _280
REMARK  114  A    between atoms: _279  and  _282
REMARK  115  A    between atoms: _282  and  _283
REMARK  116  A    between atoms: _293  and  _295
REMARK  117  A    between atoms: _295  and  _296
REMARK  118  A    between atoms: _295  and  _298
REMARK  119  A    between atoms: _298  and  _299
REMARK  120  A    between atoms: _299  and  _300
REMARK  121  A    between atoms: _300  and  _301
REMARK  122  A    between atoms: _301  and  _302
REMARK  123  A    between atoms: _306  and  _308
REMARK  124  A    between atoms: _308  and  _309
REMARK  125  A    between atoms: _308  and  _311
REMARK  126  A    between atoms: _311  and  _312
REMARK  127  A    between atoms: _322  and  _324
REMARK  128  A    between atoms: _324  and  _325
REMARK  129  A    between atoms: _324  and  _327
REMARK  130  A    between atoms: _327  and  _328
REMARK  131  A    between atoms: _331  and  _333
REMARK  132  A    between atoms: _333  and  _334
REMARK  133  A    between atoms: _333  and  _336
REMARK  134  A    between atoms: _336  and  _337
REMARK  135  A    between atoms: _340  and  _342
REMARK  136  A    between atoms: _342  and  _343
REMARK  137  A    between atoms: _345  and  _347
REMARK  138  A    between atoms: _347  and  _348
REMARK  139  A    between atoms: _347  and  _350
REMARK  140  A    between atoms: _350  and  _351
REMARK  141  A    between atoms: _361  and  _363
REMARK  142  A    between atoms: _363  and  _364
REMARK  143  A    between atoms: _366  and  _368
REMARK  144  A    between atoms: _368  and  _369
REMARK  145  A    between atoms: _368  and  _371
REMARK  146  A    between atoms: _371  and  _372
REMARK  147  A    between atoms: _375  and  _377
REMARK  148  A    between atoms: _377  and  _378
REMARK  149  A    between atoms: _377  and  _380
REMARK  150  A    between atoms: _380  and  _381
REMARK  151  A    between atoms: _386  and  _388
REMARK  152  A    between atoms: _388  and  _389
REMARK  153  A    between atoms: _388  and  _391
REMARK  154  A    between atoms: _391  and  _392
REMARK  155  A    between atoms: _397  and  _399
REMARK  156  A    between atoms: _399  and  _400
REMARK  157  A    between atoms: _399  and  _402
REMARK  158  A    between atoms: _402  and  _403
REMARK                            x       y       z     vdW  Elec       q    Type
REMARK                         _______ _______ _______ _____ _____    ______ ____
ROOT
ATOM      1  O   HOH     1      27.057   6.807  33.145  0.00  0.00    +0.000 OA
ENDROOT
TORSDOF 0
REMARK  Name = ../refined-set-2016/2epn/2epn_pocket.pdb
REMARK  158 active torsions:
REMARK  status: ('A' for Active; 'I' for Inactive)
REMARK    1  A    between atoms: _1  and  _3
REMARK    2  A    between atoms: _3  and  _4
REMARK    3  A    between atoms: _3  and  _6
REMARK    4  A    between atoms: _6  and  _7
REMARK    5  A    between atoms: _7  and  _8
REMARK    6  A    between atoms: _10  and  _12
REMARK    7  A    between atoms: _12  and  _13
REMARK    8  A    between atoms: _12  and  _15
REMARK    9  A    between atoms: _15  and  _16
REMARK   10  A    between atoms: _19  and  _21
REMARK   11  A    between atoms: _21  and  _22
REMARK   12  A    between atoms: _21  and  _24
REMARK   13  A    between atoms: _24  and  _25
REMARK   14  A    between atoms: _25  and  _26
REMARK   15  A    between atoms: _26  and  _27
REMARK   16  A    between atoms: _36  and  _38
REMARK   17  A    between atoms: _38  and  _39
REMARK   18  A    between atoms: _38  and  _41
REMARK   19  A    between atoms: _41  and  _42
REMARK   20  A    between atoms: _47  and  _48
REMARK   21  A    between atoms: _50  and  _52
REMARK   22  A    between atoms: _52  and  _53
REMARK   23  A    between atoms: _52  and  _55
REMARK   24  A    between atoms: _55  and  _56
REMARK   25  A    between atoms: _56  and  _57
REMARK   26  A    between atoms: _60  and  _62
REMARK   27  A    between atoms: _62  and  _63
REMARK   28  A    between atoms: _62  and  _65
REMARK   29  A    between atoms: _65  and  _66
REMARK   30  A    between atoms: _66  and  _67
REMARK   31  A    between atoms: _72  and  _74
REMARK   32  A    between atoms: _74  and  _75
REMARK   33  A    between atoms: _74  and  _77
REMARK   34  A    between atoms: _77  and  _78
REMARK   35  A    between atoms: _83  and  _85
REMARK   36  A    between atoms: _85  and  _86
REMARK   37  A    between atoms: _85  and  _88
REMARK   38  A    between atoms: _88  and  _89
REMARK   39  A    between atoms: _94  and  _96
REMARK   40  A    between atoms: _96  and  _97
REMARK   41  A    between atoms: _99  and  _101
REMARK   42  A    between atoms: _101  and  _102
REMARK   43  A    between atoms: _101  and  _104
REMARK   44  A    between atoms: _104  and  _105
REMARK   45  A    between atoms: _105  and  _106
REMARK   46  A    between atoms: _108  and  _110
REMARK   47  A    between atoms: _110  and  _111
REMARK   48  A    between atoms: _110  and  _113
REMARK   49  A    between atoms: _113  and  _114
REMARK   50  A    between atoms: _117  and  _119
REMARK   51  A    between atoms: _119  and  _120
REMARK   52  A    between atoms: _119  and  _122
REMARK   53  A    between atoms: _122  and  _123
REMARK   54  A    between atoms: _123  and  _124
REMARK   55  A    between atoms: _127  and  _129
REMARK   56  A    between atoms: _129  and  _130
REMARK   57  A    between atoms: _129  and  _132
REMARK   58  A    between atoms: _132  and  _133
REMARK   59  A    between atoms: _133  and  _134
REMARK   60  A    between atoms: _136  and  _138
REMARK   61  A    between atoms: _138  and  _139
REMARK   62  A    between atoms: _138  and  _141
REMARK   63  A    between atoms: _141  and  _142
REMARK   64  A    between atoms: _152  and  _154
REMARK   65  A    between atoms: _154  and  _155
REMARK   66  A    between atoms: _154  and  _157
REMARK   67  A    between atoms: _157  and  _158
REMARK   68  A    between atoms: _160  and  _162
REMARK   69  A    between atoms: _162  and  _163
REMARK   70  A    between atoms: _162  and  _165
REMARK   71  A    between atoms: _165  and  _166
REMARK   72  A    between atoms: _169  and  _171
REMARK   73  A    between atoms: _171  and  _172
REMARK   74  A    between atoms: _171  and  _174
REMARK   75  A    between atoms: _174  and  _175
REMARK   76  A    between atoms: _175  and  _176
REMARK   77  A    between atoms: _176  and  _177
REMARK   78  A    between atoms: _177  and  _178
REMARK   79  A    between atoms: _182  and  _184
REMARK   80  A    between atoms: _184  and  _185
REMARK   81  A    between atoms: _184  and  _187
REMARK   82  A    between atoms: _187  and  _188
REMARK   83  A    between atoms: _193  and  _194
REMARK   84  A    between atoms: _196  and  _198
REMARK   85  A    between atoms: _198  and  _199
REMARK   86  A    between atoms: _198  and  _201
REMARK   87  A    between atoms: _204  and  _206
REMARK   88  A    between atoms: _206  and  _207
REMARK   89  A    between atoms: _206  and  _209
REMARK   90  A    between atoms: _209  and  _210
REMARK   91  A    between atoms: _215  and  _216
REMARK   92  A    between atoms: _218  and  _220
REMARK   93  A    between atoms: _220  and  _221
REMARK   94  A    between atoms: _220  and  _223
REMARK   95  A    between atoms: _223  and  _224
REMARK   96  A    between atoms: _234  and  _236
REMARK   97  A    between atoms: _236  and  _237
REMARK   98  A    between atoms: _236  and  _239
REMARK   99  A    between atoms: _239  and  _240
REMARK  100  A    between atoms: _243  and  _245
REMARK  101  A    between atoms: _245  and  _246
REMARK  102  A    between atoms: _245  and  _248
REMARK  103  A    between atoms: _248  and  _249
REMARK  104  A    between atoms: _254  and  _255
REMARK  105  A    between atoms: _257  and  _259
REMARK  106  A    between atoms: _259  and  _260
REMARK  107  A    between atoms: _259  and  _262
REMARK  108  A    between atoms: _262  and  _263
REMARK  109  A    between atoms: _268  and  _269
REMARK  110  A    between atoms: _271  and  _273
REMARK  111  A    between atoms: _273  and  _274
REMARK  112  A    between atoms: _277  and  _279
REMARK  113  A    between atoms: _279  and  _280
REMARK  114  A    between atoms: _279  and  _282
REMARK  115  A    between atoms: _282  and  _283
REMARK  116  A    between atoms: _293  and  _295
REMARK  117  A    between atoms: _295  and  _296
REMARK  118  A    between atoms: _295  and  _298
REMARK  119  A    between atoms: _298  and  _299
REMARK  120  A    between atoms: _299  and  _300
REMARK  121  A    between atoms: _300  and  _301
REMARK  122  A    between atoms: _301  and  _302
REMARK  123  A    between atoms: _306  and  _308
REMARK  124  A    between atoms: _308  and  _309
REMARK  125  A    between atoms: _308  and  _311
REMARK  126  A    between atoms: _311  and  _312
REMARK  127  A    between atoms: _322  and  _324
REMARK  128  A    between atoms: _324  and  _325
REMARK  129  A    between atoms: _324  and  _327
REMARK  130  A    between atoms: _327  and  _328
REMARK  131  A    between atoms: _331  and  _333
REMARK  132  A    between atoms: _333  and  _334
REMARK  133  A    between atoms: _333  and  _336
REMARK  134  A    between atoms: _336  and  _337
REMARK  135  A    between atoms: _340  and  _342
REMARK  136  A    between atoms: _342  and  _343
REMARK  137  A    between atoms: _345  and  _347
REMARK  138  A    between atoms: _347  and  _348
REMARK  139  A    between atoms: _347  and  _350
REMARK  140  A    between atoms: _350  and  _351
REMARK  141  A    between atoms: _361  and  _363
REMARK  142  A    between atoms: _363  and  _364
REMARK  143  A    between atoms: _366  and  _368
REMARK  144  A    between atoms: _368  and  _369
REMARK  145  A    between atoms: _368  and  _371
REMARK  146  A    between atoms: _371  and  _372
REMARK  147  A    between atoms: _375  and  _377
REMARK  148  A    between atoms: _377  and  _378
REMARK  149  A    between atoms: _377  and  _380
REMARK  150  A    between atoms: _380  and  _381
REMARK  151  A    between atoms: _386  and  _388
REMARK  152  A    between atoms: _388  and  _389
REMARK  153  A    between atoms: _388  and  _391
REMARK  154  A    between atoms: _391  and  _392
REMARK  155  A    between atoms: _397  and  _399
REMARK  156  A    between atoms: _399  and  _400
REMARK  157  A    between atoms: _399  and  _402
REMARK  158  A    between atoms: _402  and  _403
REMARK                            x       y       z     vdW  Elec       q    Type
REMARK                         _______ _______ _______ _____ _____    ______ ____
ROOT
ATOM      1  O   HOH     1      22.839  14.802  35.147  0.00  0.00    +0.000 OA
ENDROOT
TORSDOF 0
REMARK  Name = ../refined-set-2016/2epn/2epn_pocket.pdb
REMARK  158 active torsions:
REMARK  status: ('A' for Active; 'I' for Inactive)
REMARK    1  A    between atoms: _1  and  _3
REMARK    2  A    between atoms: _3  and  _4
REMARK    3  A    between atoms: _3  and  _6
REMARK    4  A    between atoms: _6  and  _7
REMARK    5  A    between atoms: _7  and  _8
REMARK    6  A    between atoms: _10  and  _12
REMARK    7  A    between atoms: _12  and  _13
REMARK    8  A    between atoms: _12  and  _15
REMARK    9  A    between atoms: _15  and  _16
REMARK   10  A    between atoms: _19  and  _21
REMARK   11  A    between atoms: _21  and  _22
REMARK   12  A    between atoms: _21  and  _24
REMARK   13  A    between atoms: _24  and  _25
REMARK   14  A    between atoms: _25  and  _26
REMARK   15  A    between atoms: _26  and  _27
REMARK   16  A    between atoms: _36  and  _38
REMARK   17  A    between atoms: _38  and  _39
REMARK   18  A    between atoms: _38  and  _41
REMARK   19  A    between atoms: _41  and  _42
REMARK   20  A    between atoms: _47  and  _48
REMARK   21  A    between atoms: _50  and  _52
REMARK   22  A    between atoms: _52  and  _53
REMARK   23  A    between atoms: _52  and  _55
REMARK   24  A    between atoms: _55  and  _56
REMARK   25  A    between atoms: _56  and  _57
REMARK   26  A    between atoms: _60  and  _62
REMARK   27  A    between atoms: _62  and  _63
REMARK   28  A    between atoms: _62  and  _65
REMARK   29  A    between atoms: _65  and  _66
REMARK   30  A    between atoms: _66  and  _67
REMARK   31  A    between atoms: _72  and  _74
REMARK   32  A    between atoms: _74  and  _75
REMARK   33  A    between atoms: _74  and  _77
REMARK   34  A    between atoms: _77  and  _78
REMARK   35  A    between atoms: _83  and  _85
REMARK   36  A    between atoms: _85  and  _86
REMARK   37  A    between atoms: _85  and  _88
REMARK   38  A    between atoms: _88  and  _89
REMARK   39  A    between atoms: _94  and  _96
REMARK   40  A    between atoms: _96  and  _97
REMARK   41  A    between atoms: _99  and  _101
REMARK   42  A    between atoms: _101  and  _102
REMARK   43  A    between atoms: _101  and  _104
REMARK   44  A    between atoms: _104  and  _105
REMARK   45  A    between atoms: _105  and  _106
REMARK   46  A    between atoms: _108  and  _110
REMARK   47  A    between atoms: _110  and  _111
REMARK   48  A    between atoms: _110  and  _113
REMARK   49  A    between atoms: _113  and  _114
REMARK   50  A    between atoms: _117  and  _119
REMARK   51  A    between atoms: _119  and  _120
REMARK   52  A    between atoms: _119  and  _122
REMARK   53  A    between atoms: _122  and  _123
REMARK   54  A    between atoms: _123  and  _124
REMARK   55  A    between atoms: _127  and  _129
REMARK   56  A    between atoms: _129  and  _130
REMARK   57  A    between atoms: _129  and  _132
REMARK   58  A    between atoms: _132  and  _133
REMARK   59  A    between atoms: _133  and  _134
REMARK   60  A    between atoms: _136  and  _138
REMARK   61  A    between atoms: _138  and  _139
REMARK   62  A    between atoms: _138  and  _141
REMARK   63  A    between atoms: _141  and  _142
REMARK   64  A    between atoms: _152  and  _154
REMARK   65  A    between atoms: _154  and  _155
REMARK   66  A    between atoms: _154  and  _157
REMARK   67  A    between atoms: _157  and  _158
REMARK   68  A    between atoms: _160  and  _162
REMARK   69  A    between atoms: _162  and  _163
REMARK   70  A    between atoms: _162  and  _165
REMARK   71  A    between atoms: _165  and  _166
REMARK   72  A    between atoms: _169  and  _171
REMARK   73  A    between atoms: _171  and  _172
REMARK   74  A    between atoms: _171  and  _174
REMARK   75  A    between atoms: _174  and  _175
REMARK   76  A    between atoms: _175  and  _176
REMARK   77  A    between atoms: _176  and  _177
REMARK   78  A    between atoms: _177  and  _178
REMARK   79  A    between atoms: _182  and  _184
REMARK   80  A    between atoms: _184  and  _185
REMARK   81  A    between atoms: _184  and  _187
REMARK   82  A    between atoms: _187  and  _188
REMARK   83  A    between atoms: _193  and  _194
REMARK   84  A    between atoms: _196  and  _198
REMARK   85  A    between atoms: _198  and  _199
REMARK   86  A    between atoms: _198  and  _201
REMARK   87  A    between atoms: _204  and  _206
REMARK   88  A    between atoms: _206  and  _207
REMARK   89  A    between atoms: _206  and  _209
REMARK   90  A    between atoms: _209  and  _210
REMARK   91  A    between atoms: _215  and  _216
REMARK   92  A    between atoms: _218  and  _220
REMARK   93  A    between atoms: _220  and  _221
REMARK   94  A    between atoms: _220  and  _223
REMARK   95  A    between atoms: _223  and  _224
REMARK   96  A    between atoms: _234  and  _236
REMARK   97  A    between atoms: _236  and  _237
REMARK   98  A    between atoms: _236  and  _239
REMARK   99  A    between atoms: _239  and  _240
REMARK  100  A    between atoms: _243  and  _245
REMARK  101  A    between atoms: _245  and  _246
REMARK  102  A    between atoms: _245  and  _248
REMARK  103  A    between atoms: _248  and  _249
REMARK  104  A    between atoms: _254  and  _255
REMARK  105  A    between atoms: _257  and  _259
REMARK  106  A    between atoms: _259  and  _260
REMARK  107  A    between atoms: _259  and  _262
REMARK  108  A    between atoms: _262  and  _263
REMARK  109  A    between atoms: _268  and  _269
REMARK  110  A    between atoms: _271  and  _273
REMARK  111  A    between atoms: _273  and  _274
REMARK  112  A    between atoms: _277  and  _279
REMARK  113  A    between atoms: _279  and  _280
REMARK  114  A    between atoms: _279  and  _282
REMARK  115  A    between atoms: _282  and  _283
REMARK  116  A    between atoms: _293  and  _295
REMARK  117  A    between atoms: _295  and  _296
REMARK  118  A    between atoms: _295  and  _298
REMARK  119  A    between atoms: _298  and  _299
REMARK  120  A    between atoms: _299  and  _300
REMARK  121  A    between atoms: _300  and  _301
REMARK  122  A    between atoms: _301  and  _302
REMARK  123  A    between atoms: _306  and  _308
REMARK  124  A    between atoms: _308  and  _309
REMARK  125  A    between atoms: _308  and  _311
REMARK  126  A    between atoms: _311  and  _312
REMARK  127  A    between atoms: _322  and  _324
REMARK  128  A    between atoms: _324  and  _325
REMARK  129  A    between atoms: _324  and  _327
REMARK  130  A    between atoms: _327  and  _328
REMARK  131  A    between atoms: _331  and  _333
REMARK  132  A    between atoms: _333  and  _334
REMARK  133  A    between atoms: _333  and  _336
REMARK  134  A    between atoms: _336  and  _337
REMARK  135  A    between atoms: _340  and  _342
REMARK  136  A    between atoms: _342  and  _343
REMARK  137  A    between atoms: _345  and  _347
REMARK  138  A    between atoms: _347  and  _348
REMARK  139  A    between atoms: _347  and  _350
REMARK  140  A    between atoms: _350  and  _351
REMARK  141  A    between atoms: _361  and  _363
REMARK  142  A    between atoms: _363  and  _364
REMARK  143  A    between atoms: _366  and  _368
REMARK  144  A    between atoms: _368  and  _369
REMARK  145  A    between atoms: _368  and  _371
REMARK  146  A    between atoms: _371  and  _372
REMARK  147  A    between atoms: _375  and  _377
REMARK  148  A    between atoms: _377  and  _378
REMARK  149  A    between atoms: _377  and  _380
REMARK  150  A    between atoms: _380  and  _381
REMARK  151  A    between atoms: _386  and  _388
REMARK  152  A    between atoms: _388  and  _389
REMARK  153  A    between atoms: _388  and  _391
REMARK  154  A    between atoms: _391  and  _392
REMARK  155  A    between atoms: _397  and  _399
REMARK  156  A    between atoms: _399  and  _400
REMARK  157  A    between atoms: _399  and  _402
REMARK  158  A    between atoms: _402  and  _403
REMARK                            x       y       z     vdW  Elec       q    Type
REMARK                         _______ _______ _______ _____ _____    ______ ____
ROOT
ATOM      1  O   HOH     1      28.489  10.176  34.769  0.00  0.00    +0.000 OA
ENDROOT
TORSDOF 0
REMARK  Name = ../refined-set-2016/2epn/2epn_pocket.pdb
REMARK  158 active torsions:
REMARK  status: ('A' for Active; 'I' for Inactive)
REMARK    1  A    between atoms: _1  and  _3
REMARK    2  A    between atoms: _3  and  _4
REMARK    3  A    between atoms: _3  and  _6
REMARK    4  A    between atoms: _6  and  _7
REMARK    5  A    between atoms: _7  and  _8
REMARK    6  A    between atoms: _10  and  _12
REMARK    7  A    between atoms: _12  and  _13
REMARK    8  A    between atoms: _12  and  _15
REMARK    9  A    between atoms: _15  and  _16
REMARK   10  A    between atoms: _19  and  _21
REMARK   11  A    between atoms: _21  and  _22
REMARK   12  A    between atoms: _21  and  _24
REMARK   13  A    between atoms: _24  and  _25
REMARK   14  A    between atoms: _25  and  _26
REMARK   15  A    between atoms: _26  and  _27
REMARK   16  A    between atoms: _36  and  _38
REMARK   17  A    between atoms: _38  and  _39
REMARK   18  A    between atoms: _38  and  _41
REMARK   19  A    between atoms: _41  and  _42
REMARK   20  A    between atoms: _47  and  _48
REMARK   21  A    between atoms: _50  and  _52
REMARK   22  A    between atoms: _52  and  _53
REMARK   23  A    between atoms: _52  and  _55
REMARK   24  A    between atoms: _55  and  _56
REMARK   25  A    between atoms: _56  and  _57
REMARK   26  A    between atoms: _60  and  _62
REMARK   27  A    between atoms: _62  and  _63
REMARK   28  A    between atoms: _62  and  _65
REMARK   29  A    between atoms: _65  and  _66
REMARK   30  A    between atoms: _66  and  _67
REMARK   31  A    between atoms: _72  and  _74
REMARK   32  A    between atoms: _74  and  _75
REMARK   33  A    between atoms: _74  and  _77
REMARK   34  A    between atoms: _77  and  _78
REMARK   35  A    between atoms: _83  and  _85
REMARK   36  A    between atoms: _85  and  _86
REMARK   37  A    between atoms: _85  and  _88
REMARK   38  A    between atoms: _88  and  _89
REMARK   39  A    between atoms: _94  and  _96
REMARK   40  A    between atoms: _96  and  _97
REMARK   41  A    between atoms: _99  and  _101
REMARK   42  A    between atoms: _101  and  _102
REMARK   43  A    between atoms: _101  and  _104
REMARK   44  A    between atoms: _104  and  _105
REMARK   45  A    between atoms: _105  and  _106
REMARK   46  A    between atoms: _108  and  _110
REMARK   47  A    between atoms: _110  and  _111
REMARK   48  A    between atoms: _110  and  _113
REMARK   49  A    between atoms: _113  and  _114
REMARK   50  A    between atoms: _117  and  _119
REMARK   51  A    between atoms: _119  and  _120
REMARK   52  A    between atoms: _119  and  _122
REMARK   53  A    between atoms: _122  and  _123
REMARK   54  A    between atoms: _123  and  _124
REMARK   55  A    between atoms: _127  and  _129
REMARK   56  A    between atoms: _129  and  _130
REMARK   57  A    between atoms: _129  and  _132
REMARK   58  A    between atoms: _132  and  _133
REMARK   59  A    between atoms: _133  and  _134
REMARK   60  A    between atoms: _136  and  _138
REMARK   61  A    between atoms: _138  and  _139
REMARK   62  A    between atoms: _138  and  _141
REMARK   63  A    between atoms: _141  and  _142
REMARK   64  A    between atoms: _152  and  _154
REMARK   65  A    between atoms: _154  and  _155
REMARK   66  A    between atoms: _154  and  _157
REMARK   67  A    between atoms: _157  and  _158
REMARK   68  A    between atoms: _160  and  _162
REMARK   69  A    between atoms: _162  and  _163
REMARK   70  A    between atoms: _162  and  _165
REMARK   71  A    between atoms: _165  and  _166
REMARK   72  A    between atoms: _169  and  _171
REMARK   73  A    between atoms: _171  and  _172
REMARK   74  A    between atoms: _171  and  _174
REMARK   75  A    between atoms: _174  and  _175
REMARK   76  A    between atoms: _175  and  _176
REMARK   77  A    between atoms: _176  and  _177
REMARK   78  A    between atoms: _177  and  _178
REMARK   79  A    between atoms: _182  and  _184
REMARK   80  A    between atoms: _184  and  _185
REMARK   81  A    between atoms: _184  and  _187
REMARK   82  A    between atoms: _187  and  _188
REMARK   83  A    between atoms: _193  and  _194
REMARK   84  A    between atoms: _196  and  _198
REMARK   85  A    between atoms: _198  and  _199
REMARK   86  A    between atoms: _198  and  _201
REMARK   87  A    between atoms: _204  and  _206
REMARK   88  A    between atoms: _206  and  _207
REMARK   89  A    between atoms: _206  and  _209
REMARK   90  A    between atoms: _209  and  _210
REMARK   91  A    between atoms: _215  and  _216
REMARK   92  A    between atoms: _218  and  _220
REMARK   93  A    between atoms: _220  and  _221
REMARK   94  A    between atoms: _220  and  _223
REMARK   95  A    between atoms: _223  and  _224
REMARK   96  A    between atoms: _234  and  _236
REMARK   97  A    between atoms: _236  and  _237
REMARK   98  A    between atoms: _236  and  _239
REMARK   99  A    between atoms: _239  and  _240
REMARK  100  A    between atoms: _243  and  _245
REMARK  101  A    between atoms: _245  and  _246
REMARK  102  A    between atoms: _245  and  _248
REMARK  103  A    between atoms: _248  and  _249
REMARK  104  A    between atoms: _254  and  _255
REMARK  105  A    between atoms: _257  and  _259
REMARK  106  A    between atoms: _259  and  _260
REMARK  107  A    between atoms: _259  and  _262
REMARK  108  A    between atoms: _262  and  _263
REMARK  109  A    between atoms: _268  and  _269
REMARK  110  A    between atoms: _271  and  _273
REMARK  111  A    between atoms: _273  and  _274
REMARK  112  A    between atoms: _277  and  _279
REMARK  113  A    between atoms: _279  and  _280
REMARK  114  A    between atoms: _279  and  _282
REMARK  115  A    between atoms: _282  and  _283
REMARK  116  A    between atoms: _293  and  _295
REMARK  117  A    between atoms: _295  and  _296
REMARK  118  A    between atoms: _295  and  _298
REMARK  119  A    between atoms: _298  and  _299
REMARK  120  A    between atoms: _299  and  _300
REMARK  121  A    between atoms: _300  and  _301
REMARK  122  A    between atoms: _301  and  _302
REMARK  123  A    between atoms: _306  and  _308
REMARK  124  A    between atoms: _308  and  _309
REMARK  125  A    between atoms: _308  and  _311
REMARK  126  A    between atoms: _311  and  _312
REMARK  127  A    between atoms: _322  and  _324
REMARK  128  A    between atoms: _324  and  _325
REMARK  129  A    between atoms: _324  and  _327
REMARK  130  A    between atoms: _327  and  _328
REMARK  131  A    between atoms: _331  and  _333
REMARK  132  A    between atoms: _333  and  _334
REMARK  133  A    between atoms: _333  and  _336
REMARK  134  A    between atoms: _336  and  _337
REMARK  135  A    between atoms: _340  and  _342
REMARK  136  A    between atoms: _342  and  _343
REMARK  137  A    between atoms: _345  and  _347
REMARK  138  A    between atoms: _347  and  _348
REMARK  139  A    between atoms: _347  and  _350
REMARK  140  A    between atoms: _350  and  _351
REMARK  141  A    between atoms: _361  and  _363
REMARK  142  A    between atoms: _363  and  _364
REMARK  143  A    between atoms: _366  and  _368
REMARK  144  A    between atoms: _368  and  _369
REMARK  145  A    between atoms: _368  and  _371
REMARK  146  A    between atoms: _371  and  _372
REMARK  147  A    between atoms: _375  and  _377
REMARK  148  A    between atoms: _377  and  _378
REMARK  149  A    between atoms: _377  and  _380
REMARK  150  A    between atoms: _380  and  _381
REMARK  151  A    between atoms: _386  and  _388
REMARK  152  A    between atoms: _388  and  _389
REMARK  153  A    between atoms: _388  and  _391
REMARK  154  A    between atoms: _391  and  _392
REMARK  155  A    between atoms: _397  and  _399
REMARK  156  A    between atoms: _399  and  _400
REMARK  157  A    between atoms: _399  and  _402
REMARK  158  A    between atoms: _402  and  _403
REMARK                            x       y       z     vdW  Elec       q    Type
REMARK                         _______ _______ _______ _____ _____    ______ ____
ROOT
ATOM      1  O   HOH     1      30.754  13.896  36.075  0.00  0.00    +0.000 OA
ENDROOT
TORSDOF 0
REMARK  Name = ../refined-set-2016/2epn/2epn_pocket.pdb
REMARK  158 active torsions:
REMARK  status: ('A' for Active; 'I' for Inactive)
REMARK    1  A    between atoms: _1  and  _3
REMARK    2  A    between atoms: _3  and  _4
REMARK    3  A    between atoms: _3  and  _6
REMARK    4  A    between atoms: _6  and  _7
REMARK    5  A    between atoms: _7  and  _8
REMARK    6  A    between atoms: _10  and  _12
REMARK    7  A    between atoms: _12  and  _13
REMARK    8  A    between atoms: _12  and  _15
REMARK    9  A    between atoms: _15  and  _16
REMARK   10  A    between atoms: _19  and  _21
REMARK   11  A    between atoms: _21  and  _22
REMARK   12  A    between atoms: _21  and  _24
REMARK   13  A    between atoms: _24  and  _25
REMARK   14  A    between atoms: _25  and  _26
REMARK   15  A    between atoms: _26  and  _27
REMARK   16  A    between atoms: _36  and  _38
REMARK   17  A    between atoms: _38  and  _39
REMARK   18  A    between atoms: _38  and  _41
REMARK   19  A    between atoms: _41  and  _42
REMARK   20  A    between atoms: _47  and  _48
REMARK   21  A    between atoms: _50  and  _52
REMARK   22  A    between atoms: _52  and  _53
REMARK   23  A    between atoms: _52  and  _55
REMARK   24  A    between atoms: _55  and  _56
REMARK   25  A    between atoms: _56  and  _57
REMARK   26  A    between atoms: _60  and  _62
REMARK   27  A    between atoms: _62  and  _63
REMARK   28  A    between atoms: _62  and  _65
REMARK   29  A    between atoms: _65  and  _66
REMARK   30  A    between atoms: _66  and  _67
REMARK   31  A    between atoms: _72  and  _74
REMARK   32  A    between atoms: _74  and  _75
REMARK   33  A    between atoms: _74  and  _77
REMARK   34  A    between atoms: _77  and  _78
REMARK   35  A    between atoms: _83  and  _85
REMARK   36  A    between atoms: _85  and  _86
REMARK   37  A    between atoms: _85  and  _88
REMARK   38  A    between atoms: _88  and  _89
REMARK   39  A    between atoms: _94  and  _96
REMARK   40  A    between atoms: _96  and  _97
REMARK   41  A    between atoms: _99  and  _101
REMARK   42  A    between atoms: _101  and  _102
REMARK   43  A    between atoms: _101  and  _104
REMARK   44  A    between atoms: _104  and  _105
REMARK   45  A    between atoms: _105  and  _106
REMARK   46  A    between atoms: _108  and  _110
REMARK   47  A    between atoms: _110  and  _111
REMARK   48  A    between atoms: _110  and  _113
REMARK   49  A    between atoms: _113  and  _114
REMARK   50  A    between atoms: _117  and  _119
REMARK   51  A    between atoms: _119  and  _120
REMARK   52  A    between atoms: _119  and  _122
REMARK   53  A    between atoms: _122  and  _123
REMARK   54  A    between atoms: _123  and  _124
REMARK   55  A    between atoms: _127  and  _129
REMARK   56  A    between atoms: _129  and  _130
REMARK   57  A    between atoms: _129  and  _132
REMARK   58  A    between atoms: _132  and  _133
REMARK   59  A    between atoms: _133  and  _134
REMARK   60  A    between atoms: _136  and  _138
REMARK   61  A    between atoms: _138  and  _139
REMARK   62  A    between atoms: _138  and  _141
REMARK   63  A    between atoms: _141  and  _142
REMARK   64  A    between atoms: _152  and  _154
REMARK   65  A    between atoms: _154  and  _155
REMARK   66  A    between atoms: _154  and  _157
REMARK   67  A    between atoms: _157  and  _158
REMARK   68  A    between atoms: _160  and  _162
REMARK   69  A    between atoms: _162  and  _163
REMARK   70  A    between atoms: _162  and  _165
REMARK   71  A    between atoms: _165  and  _166
REMARK   72  A    between atoms: _169  and  _171
REMARK   73  A    between atoms: _171  and  _172
REMARK   74  A    between atoms: _171  and  _174
REMARK   75  A    between atoms: _174  and  _175
REMARK   76  A    between atoms: _175  and  _176
REMARK   77  A    between atoms: _176  and  _177
REMARK   78  A    between atoms: _177  and  _178
REMARK   79  A    between atoms: _182  and  _184
REMARK   80  A    between atoms: _184  and  _185
REMARK   81  A    between atoms: _184  and  _187
REMARK   82  A    between atoms: _187  and  _188
REMARK   83  A    between atoms: _193  and  _194
REMARK   84  A    between atoms: _196  and  _198
REMARK   85  A    between atoms: _198  and  _199
REMARK   86  A    between atoms: _198  and  _201
REMARK   87  A    between atoms: _204  and  _206
REMARK   88  A    between atoms: _206  and  _207
REMARK   89  A    between atoms: _206  and  _209
REMARK   90  A    between atoms: _209  and  _210
REMARK   91  A    between atoms: _215  and  _216
REMARK   92  A    between atoms: _218  and  _220
REMARK   93  A    between atoms: _220  and  _221
REMARK   94  A    between atoms: _220  and  _223
REMARK   95  A    between atoms: _223  and  _224
REMARK   96  A    between atoms: _234  and  _236
REMARK   97  A    between atoms: _236  and  _237
REMARK   98  A    between atoms: _236  and  _239
REMARK   99  A    between atoms: _239  and  _240
REMARK  100  A    between atoms: _243  and  _245
REMARK  101  A    between atoms: _245  and  _246
REMARK  102  A    between atoms: _245  and  _248
REMARK  103  A    between atoms: _248  and  _249
REMARK  104  A    between atoms: _254  and  _255
REMARK  105  A    between atoms: _257  and  _259
REMARK  106  A    between atoms: _259  and  _260
REMARK  107  A    between atoms: _259  and  _262
REMARK  108  A    between atoms: _262  and  _263
REMARK  109  A    between atoms: _268  and  _269
REMARK  110  A    between atoms: _271  and  _273
REMARK  111  A    between atoms: _273  and  _274
REMARK  112  A    between atoms: _277  and  _279
REMARK  113  A    between atoms: _279  and  _280
REMARK  114  A    between atoms: _279  and  _282
REMARK  115  A    between atoms: _282  and  _283
REMARK  116  A    between atoms: _293  and  _295
REMARK  117  A    between atoms: _295  and  _296
REMARK  118  A    between atoms: _295  and  _298
REMARK  119  A    between atoms: _298  and  _299
REMARK  120  A    between atoms: _299  and  _300
REMARK  121  A    between atoms: _300  and  _301
REMARK  122  A    between atoms: _301  and  _302
REMARK  123  A    between atoms: _306  and  _308
REMARK  124  A    between atoms: _308  and  _309
REMARK  125  A    between atoms: _308  and  _311
REMARK  126  A    between atoms: _311  and  _312
REMARK  127  A    between atoms: _322  and  _324
REMARK  128  A    between atoms: _324  and  _325
REMARK  129  A    between atoms: _324  and  _327
REMARK  130  A    between atoms: _327  and  _328
REMARK  131  A    between atoms: _331  and  _333
REMARK  132  A    between atoms: _333  and  _334
REMARK  133  A    between atoms: _333  and  _336
REMARK  134  A    between atoms: _336  and  _337
REMARK  135  A    between atoms: _340  and  _342
REMARK  136  A    between atoms: _342  and  _343
REMARK  137  A    between atoms: _345  and  _347
REMARK  138  A    between atoms: _347  and  _348
REMARK  139  A    between atoms: _347  and  _350
REMARK  140  A    between atoms: _350  and  _351
REMARK  141  A    between atoms: _361  and  _363
REMARK  142  A    between atoms: _363  and  _364
REMARK  143  A    between atoms: _366  and  _368
REMARK  144  A    between atoms: _368  and  _369
REMARK  145  A    between atoms: _368  and  _371
REMARK  146  A    between atoms: _371  and  _372
REMARK  147  A    between atoms: _375  and  _377
REMARK  148  A    between atoms: _377  and  _378
REMARK  149  A    between atoms: _377  and  _380
REMARK  150  A    between atoms: _380  and  _381
REMARK  151  A    between atoms: _386  and  _388
REMARK  152  A    between atoms: _388  and  _389
REMARK  153  A    between atoms: _388  and  _391
REMARK  154  A    between atoms: _391  and  _392
REMARK  155  A    between atoms: _397  and  _399
REMARK  156  A    between atoms: _399  and  _400
REMARK  157  A    between atoms: _399  and  _402
REMARK  158  A    between atoms: _402  and  _403
REMARK                            x       y       z     vdW  Elec       q    Type
REMARK                         _______ _______ _______ _____ _____    ______ ____
ROOT
ATOM      1  O   HOH     1      23.558  10.974  32.974  0.00  0.00    +0.000 OA
ENDROOT
TORSDOF 0
REMARK  Name = ../refined-set-2016/2epn/2epn_pocket.pdb
REMARK  158 active torsions:
REMARK  status: ('A' for Active; 'I' for Inactive)
REMARK    1  A    between atoms: _1  and  _3
REMARK    2  A    between atoms: _3  and  _4
REMARK    3  A    between atoms: _3  and  _6
REMARK    4  A    between atoms: _6  and  _7
REMARK    5  A    between atoms: _7  and  _8
REMARK    6  A    between atoms: _10  and  _12
REMARK    7  A    between atoms: _12  and  _13
REMARK    8  A    between atoms: _12  and  _15
REMARK    9  A    between atoms: _15  and  _16
REMARK   10  A    between atoms: _19  and  _21
REMARK   11  A    between atoms: _21  and  _22
REMARK   12  A    between atoms: _21  and  _24
REMARK   13  A    between atoms: _24  and  _25
REMARK   14  A    between atoms: _25  and  _26
REMARK   15  A    between atoms: _26  and  _27
REMARK   16  A    between atoms: _36  and  _38
REMARK   17  A    between atoms: _38  and  _39
REMARK   18  A    between atoms: _38  and  _41
REMARK   19  A    between atoms: _41  and  _42
REMARK   20  A    between atoms: _47  and  _48
REMARK   21  A    between atoms: _50  and  _52
REMARK   22  A    between atoms: _52  and  _53
REMARK   23  A    between atoms: _52  and  _55
REMARK   24  A    between atoms: _55  and  _56
REMARK   25  A    between atoms: _56  and  _57
REMARK   26  A    between atoms: _60  and  _62
REMARK   27  A    between atoms: _62  and  _63
REMARK   28  A    between atoms: _62  and  _65
REMARK   29  A    between atoms: _65  and  _66
REMARK   30  A    between atoms: _66  and  _67
REMARK   31  A    between atoms: _72  and  _74
REMARK   32  A    between atoms: _74  and  _75
REMARK   33  A    between atoms: _74  and  _77
REMARK   34  A    between atoms: _77  and  _78
REMARK   35  A    between atoms: _83  and  _85
REMARK   36  A    between atoms: _85  and  _86
REMARK   37  A    between atoms: _85  and  _88
REMARK   38  A    between atoms: _88  and  _89
REMARK   39  A    between atoms: _94  and  _96
REMARK   40  A    between atoms: _96  and  _97
REMARK   41  A    between atoms: _99  and  _101
REMARK   42  A    between atoms: _101  and  _102
REMARK   43  A    between atoms: _101  and  _104
REMARK   44  A    between atoms: _104  and  _105
REMARK   45  A    between atoms: _105  and  _106
REMARK   46  A    between atoms: _108  and  _110
REMARK   47  A    between atoms: _110  and  _111
REMARK   48  A    between atoms: _110  and  _113
REMARK   49  A    between atoms: _113  and  _114
REMARK   50  A    between atoms: _117  and  _119
REMARK   51  A    between atoms: _119  and  _120
REMARK   52  A    between atoms: _119  and  _122
REMARK   53  A    between atoms: _122  and  _123
REMARK   54  A    between atoms: _123  and  _124
REMARK   55  A    between atoms: _127  and  _129
REMARK   56  A    between atoms: _129  and  _130
REMARK   57  A    between atoms: _129  and  _132
REMARK   58  A    between atoms: _132  and  _133
REMARK   59  A    between atoms: _133  and  _134
REMARK   60  A    between atoms: _136  and  _138
REMARK   61  A    between atoms: _138  and  _139
REMARK   62  A    between atoms: _138  and  _141
REMARK   63  A    between atoms: _141  and  _142
REMARK   64  A    between atoms: _152  and  _154
REMARK   65  A    between atoms: _154  and  _155
REMARK   66  A    between atoms: _154  and  _157
REMARK   67  A    between atoms: _157  and  _158
REMARK   68  A    between atoms: _160  and  _162
REMARK   69  A    between atoms: _162  and  _163
REMARK   70  A    between atoms: _162  and  _165
REMARK   71  A    between atoms: _165  and  _166
REMARK   72  A    between atoms: _169  and  _171
REMARK   73  A    between atoms: _171  and  _172
REMARK   74  A    between atoms: _171  and  _174
REMARK   75  A    between atoms: _174  and  _175
REMARK   76  A    between atoms: _175  and  _176
REMARK   77  A    between atoms: _176  and  _177
REMARK   78  A    between atoms: _177  and  _178
REMARK   79  A    between atoms: _182  and  _184
REMARK   80  A    between atoms: _184  and  _185
REMARK   81  A    between atoms: _184  and  _187
REMARK   82  A    between atoms: _187  and  _188
REMARK   83  A    between atoms: _193  and  _194
REMARK   84  A    between atoms: _196  and  _198
REMARK   85  A    between atoms: _198  and  _199
REMARK   86  A    between atoms: _198  and  _201
REMARK   87  A    between atoms: _204  and  _206
REMARK   88  A    between atoms: _206  and  _207
REMARK   89  A    between atoms: _206  and  _209
REMARK   90  A    between atoms: _209  and  _210
REMARK   91  A    between atoms: _215  and  _216
REMARK   92  A    between atoms: _218  and  _220
REMARK   93  A    between atoms: _220  and  _221
REMARK   94  A    between atoms: _220  and  _223
REMARK   95  A    between atoms: _223  and  _224
REMARK   96  A    between atoms: _234  and  _236
REMARK   97  A    between atoms: _236  and  _237
REMARK   98  A    between atoms: _236  and  _239
REMARK   99  A    between atoms: _239  and  _240
REMARK  100  A    between atoms: _243  and  _245
REMARK  101  A    between atoms: _245  and  _246
REMARK  102  A    between atoms: _245  and  _248
REMARK  103  A    between atoms: _248  and  _249
REMARK  104  A    between atoms: _254  and  _255
REMARK  105  A    between atoms: _257  and  _259
REMARK  106  A    between atoms: _259  and  _260
REMARK  107  A    between atoms: _259  and  _262
REMARK  108  A    between atoms: _262  and  _263
REMARK  109  A    between atoms: _268  and  _269
REMARK  110  A    between atoms: _271  and  _273
REMARK  111  A    between atoms: _273  and  _274
REMARK  112  A    between atoms: _277  and  _279
REMARK  113  A    between atoms: _279  and  _280
REMARK  114  A    between atoms: _279  and  _282
REMARK  115  A    between atoms: _282  and  _283
REMARK  116  A    between atoms: _293  and  _295
REMARK  117  A    between atoms: _295  and  _296
REMARK  118  A    between atoms: _295  and  _298
REMARK  119  A    between atoms: _298  and  _299
REMARK  120  A    between atoms: _299  and  _300
REMARK  121  A    between atoms: _300  and  _301
REMARK  122  A    between atoms: _301  and  _302
REMARK  123  A    between atoms: _306  and  _308
REMARK  124  A    between atoms: _308  and  _309
REMARK  125  A    between atoms: _308  and  _311
REMARK  126  A    between atoms: _311  and  _312
REMARK  127  A    between atoms: _322  and  _324
REMARK  128  A    between atoms: _324  and  _325
REMARK  129  A    between atoms: _324  and  _327
REMARK  130  A    between atoms: _327  and  _328
REMARK  131  A    between atoms: _331  and  _333
REMARK  132  A    between atoms: _333  and  _334
REMARK  133  A    between atoms: _333  and  _336
REMARK  134  A    between atoms: _336  and  _337
REMARK  135  A    between atoms: _340  and  _342
REMARK  136  A    between atoms: _342  and  _343
REMARK  137  A    between atoms: _345  and  _347
REMARK  138  A    between atoms: _347  and  _348
REMARK  139  A    between atoms: _347  and  _350
REMARK  140  A    between atoms: _350  and  _351
REMARK  141  A    between atoms: _361  and  _363
REMARK  142  A    between atoms: _363  and  _364
REMARK  143  A    between atoms: _366  and  _368
REMARK  144  A    between atoms: _368  and  _369
REMARK  145  A    between atoms: _368  and  _371
REMARK  146  A    between atoms: _371  and  _372
REMARK  147  A    between atoms: _375  and  _377
REMARK  148  A    between atoms: _377  and  _378
REMARK  149  A    between atoms: _377  and  _380
REMARK  150  A    between atoms: _380  and  _381
REMARK  151  A    between atoms: _386  and  _388
REMARK  152  A    between atoms: _388  and  _389
REMARK  153  A    between atoms: _388  and  _391
REMARK  154  A    between atoms: _391  and  _392
REMARK  155  A    between atoms: _397  and  _399
REMARK  156  A    between atoms: _399  and  _400
REMARK  157  A    between atoms: _399  and  _402
REMARK  158  A    between atoms: _402  and  _403
REMARK                            x       y       z     vdW  Elec       q    Type
REMARK                         _______ _______ _______ _____ _____    ______ ____
ROOT
ATOM      1  O   HOH     1      26.025   9.153  33.916  0.00  0.00    +0.000 OA
ENDROOT
TORSDOF 0
