REMARK  Name = ../refined-set-2016/1ork/1ork_pocket.pdb
REMARK  256 active torsions:
REMARK  status: ('A' for Active; 'I' for Inactive)
REMARK    1  A    between atoms: _1  and  _3
REMARK    2  A    between atoms: _3  and  _4
REMARK    3  A    between atoms: _7  and  _9
REMARK    4  A    between atoms: _9  and  _10
REMARK    5  A    between atoms: _9  and  _12
REMARK    6  A    between atoms: _15  and  _17
REMARK    7  A    between atoms: _17  and  _18
REMARK    8  A    between atoms: _17  and  _20
REMARK    9  A    between atoms: _20  and  _21
REMARK   10  A    between atoms: _24  and  _26
REMARK   11  A    between atoms: _26  and  _27
REMARK   12  A    between atoms: _30  and  _32
REMARK   13  A    between atoms: _32  and  _33
REMARK   14  A    between atoms: _32  and  _35
REMARK   15  A    between atoms: _35  and  _36
REMARK   16  A    between atoms: _41  and  _43
REMARK   17  A    between atoms: _43  and  _44
REMARK   18  A    between atoms: _43  and  _46
REMARK   19  A    between atoms: _46  and  _47
REMARK   20  A    between atoms: _50  and  _52
REMARK   21  A    between atoms: _52  and  _53
REMARK   22  A    between atoms: _52  and  _55
REMARK   23  A    between atoms: _55  and  _56
REMARK   24  A    between atoms: _61  and  _62
REMARK   25  A    between atoms: _64  and  _66
REMARK   26  A    between atoms: _66  and  _67
REMARK   27  A    between atoms: _66  and  _69
REMARK   28  A    between atoms: _69  and  _70
REMARK   29  A    between atoms: _72  and  _74
REMARK   30  A    between atoms: _74  and  _75
REMARK   31  A    between atoms: _74  and  _77
REMARK   32  A    between atoms: _77  and  _78
REMARK   33  A    between atoms: _81  and  _83
REMARK   34  A    between atoms: _83  and  _84
REMARK   35  A    between atoms: _83  and  _86
REMARK   36  A    between atoms: _86  and  _87
REMARK   37  A    between atoms: _93  and  _95
REMARK   38  A    between atoms: _95  and  _96
REMARK   39  A    between atoms: _95  and  _98
REMARK   40  A    between atoms: _98  and  _99
REMARK   41  A    between atoms: _102  and  _104
REMARK   42  A    between atoms: _104  and  _105
REMARK   43  A    between atoms: _104  and  _107
REMARK   44  A    between atoms: _107  and  _108
REMARK   45  A    between atoms: _113  and  _115
REMARK   46  A    between atoms: _115  and  _116
REMARK   47  A    between atoms: _115  and  _118
REMARK   48  A    between atoms: _118  and  _119
REMARK   49  A    between atoms: _124  and  _126
REMARK   50  A    between atoms: _126  and  _127
REMARK   51  A    between atoms: _130  and  _132
REMARK   52  A    between atoms: _132  and  _133
REMARK   53  A    between atoms: _132  and  _135
REMARK   54  A    between atoms: _135  and  _136
REMARK   55  A    between atoms: _136  and  _137
REMARK   56  A    between atoms: _139  and  _141
REMARK   57  A    between atoms: _141  and  _142
REMARK   58  A    between atoms: _141  and  _144
REMARK   59  A    between atoms: _144  and  _145
REMARK   60  A    between atoms: _147  and  _149
REMARK   61  A    between atoms: _149  and  _150
REMARK   62  A    between atoms: _149  and  _152
REMARK   63  A    between atoms: _152  and  _153
REMARK   64  A    between atoms: _159  and  _161
REMARK   65  A    between atoms: _161  and  _162
REMARK   66  A    between atoms: _161  and  _164
REMARK   67  A    between atoms: _164  and  _165
REMARK   68  A    between atoms: _165  and  _166
REMARK   69  A    between atoms: _166  and  _167
REMARK   70  A    between atoms: _176  and  _178
REMARK   71  A    between atoms: _178  and  _179
REMARK   72  A    between atoms: _178  and  _181
REMARK   73  A    between atoms: _181  and  _182
REMARK   74  A    between atoms: _185  and  _187
REMARK   75  A    between atoms: _187  and  _188
REMARK   76  A    between atoms: _187  and  _190
REMARK   77  A    between atoms: _190  and  _191
REMARK   78  A    between atoms: _196  and  _198
REMARK   79  A    between atoms: _198  and  _199
REMARK   80  A    between atoms: _198  and  _201
REMARK   81  A    between atoms: _201  and  _202
REMARK   82  A    between atoms: _205  and  _207
REMARK   83  A    between atoms: _207  and  _208
REMARK   84  A    between atoms: _210  and  _212
REMARK   85  A    between atoms: _212  and  _213
REMARK   86  A    between atoms: _212  and  _215
REMARK   87  A    between atoms: _215  and  _216
REMARK   88  A    between atoms: _219  and  _221
REMARK   89  A    between atoms: _221  and  _222
REMARK   90  A    between atoms: _221  and  _224
REMARK   91  A    between atoms: _224  and  _225
REMARK   92  A    between atoms: _225  and  _226
REMARK   93  A    between atoms: _226  and  _227
REMARK   94  A    between atoms: _237  and  _238
REMARK   95  A    between atoms: _243  and  _245
REMARK   96  A    between atoms: _245  and  _246
REMARK   97  A    between atoms: _245  and  _248
REMARK   98  A    between atoms: _248  and  _249
REMARK   99  A    between atoms: _252  and  _254
REMARK  100  A    between atoms: _254  and  _255
REMARK  101  A    between atoms: _254  and  _257
REMARK  102  A    between atoms: _257  and  _258
REMARK  103  A    between atoms: _258  and  _259
REMARK  104  A    between atoms: _259  and  _260
REMARK  105  A    between atoms: _260  and  _261
REMARK  106  A    between atoms: _265  and  _267
REMARK  107  A    between atoms: _267  and  _268
REMARK  108  A    between atoms: _267  and  _270
REMARK  109  A    between atoms: _270  and  _271
REMARK  110  A    between atoms: _271  and  _272
REMARK  111  A    between atoms: _277  and  _279
REMARK  112  A    between atoms: _279  and  _280
REMARK  113  A    between atoms: _279  and  _282
REMARK  114  A    between atoms: _282  and  _283
REMARK  115  A    between atoms: _288  and  _289
REMARK  116  A    between atoms: _291  and  _293
REMARK  117  A    between atoms: _293  and  _294
REMARK  118  A    between atoms: _293  and  _296
REMARK  119  A    between atoms: _296  and  _297
REMARK  120  A    between atoms: _300  and  _302
REMARK  121  A    between atoms: _302  and  _303
REMARK  122  A    between atoms: _302  and  _305
REMARK  123  A    between atoms: _305  and  _306
REMARK  124  A    between atoms: _309  and  _311
REMARK  125  A    between atoms: _311  and  _312
REMARK  126  A    between atoms: _311  and  _314
REMARK  127  A    between atoms: _317  and  _319
REMARK  128  A    between atoms: _319  and  _320
REMARK  129  A    between atoms: _319  and  _322
REMARK  130  A    between atoms: _322  and  _323
REMARK  131  A    between atoms: _323  and  _324
REMARK  132  A    between atoms: _327  and  _329
REMARK  133  A    between atoms: _329  and  _330
REMARK  134  A    between atoms: _329  and  _332
REMARK  135  A    between atoms: _332  and  _333
REMARK  136  A    between atoms: _333  and  _334
REMARK  137  A    between atoms: _339  and  _341
REMARK  138  A    between atoms: _341  and  _342
REMARK  139  A    between atoms: _341  and  _344
REMARK  140  A    between atoms: _344  and  _345
REMARK  141  A    between atoms: _348  and  _350
REMARK  142  A    between atoms: _350  and  _351
REMARK  143  A    between atoms: _353  and  _355
REMARK  144  A    between atoms: _355  and  _356
REMARK  145  A    between atoms: _355  and  _358
REMARK  146  A    between atoms: _358  and  _359
REMARK  147  A    between atoms: _362  and  _364
REMARK  148  A    between atoms: _364  and  _365
REMARK  149  A    between atoms: _368  and  _370
REMARK  150  A    between atoms: _370  and  _371
REMARK  151  A    between atoms: _370  and  _373
REMARK  152  A    between atoms: _373  and  _374
REMARK  153  A    between atoms: _377  and  _379
REMARK  154  A    between atoms: _379  and  _380
REMARK  155  A    between atoms: _379  and  _382
REMARK  156  A    between atoms: _382  and  _383
REMARK  157  A    between atoms: _385  and  _387
REMARK  158  A    between atoms: _387  and  _388
REMARK  159  A    between atoms: _391  and  _393
REMARK  160  A    between atoms: _393  and  _394
REMARK  161  A    between atoms: _393  and  _396
REMARK  162  A    between atoms: _399  and  _401
REMARK  163  A    between atoms: _401  and  _402
REMARK  164  A    between atoms: _401  and  _404
REMARK  165  A    between atoms: _404  and  _405
REMARK  166  A    between atoms: _407  and  _409
REMARK  167  A    between atoms: _409  and  _410
REMARK  168  A    between atoms: _409  and  _412
REMARK  169  A    between atoms: _412  and  _413
REMARK  170  A    between atoms: _418  and  _420
REMARK  171  A    between atoms: _420  and  _421
REMARK  172  A    between atoms: _420  and  _423
REMARK  173  A    between atoms: _423  and  _424
REMARK  174  A    between atoms: _427  and  _429
REMARK  175  A    between atoms: _429  and  _430
REMARK  176  A    between atoms: _429  and  _432
REMARK  177  A    between atoms: _432  and  _433
REMARK  178  A    between atoms: _436  and  _438
REMARK  179  A    between atoms: _438  and  _439
REMARK  180  A    between atoms: _441  and  _443
REMARK  181  A    between atoms: _443  and  _444
REMARK  182  A    between atoms: _447  and  _449
REMARK  183  A    between atoms: _449  and  _450
REMARK  184  A    between atoms: _449  and  _452
REMARK  185  A    between atoms: _455  and  _457
REMARK  186  A    between atoms: _457  and  _458
REMARK  187  A    between atoms: _457  and  _460
REMARK  188  A    between atoms: _460  and  _461
REMARK  189  A    between atoms: _464  and  _466
REMARK  190  A    between atoms: _466  and  _467
REMARK  191  A    between atoms: _466  and  _469
REMARK  192  A    between atoms: _469  and  _470
REMARK  193  A    between atoms: _470  and  _471
REMARK  194  A    between atoms: _474  and  _476
REMARK  195  A    between atoms: _476  and  _477
REMARK  196  A    between atoms: _476  and  _479
REMARK  197  A    between atoms: _479  and  _480
REMARK  198  A    between atoms: _480  and  _481
REMARK  199  A    between atoms: _486  and  _488
REMARK  200  A    between atoms: _488  and  _489
REMARK  201  A    between atoms: _488  and  _491
REMARK  202  A    between atoms: _491  and  _492
REMARK  203  A    between atoms: _492  and  _493
REMARK  204  A    between atoms: _498  and  _500
REMARK  205  A    between atoms: _500  and  _501
REMARK  206  A    between atoms: _500  and  _503
REMARK  207  A    between atoms: _503  and  _504
REMARK  208  A    between atoms: _504  and  _505
REMARK  209  A    between atoms: _508  and  _510
REMARK  210  A    between atoms: _510  and  _511
REMARK  211  A    between atoms: _510  and  _513
REMARK  212  A    between atoms: _513  and  _514
REMARK  213  A    between atoms: _519  and  _521
REMARK  214  A    between atoms: _521  and  _522
REMARK  215  A    between atoms: _521  and  _524
REMARK  216  A    between atoms: _524  and  _525
REMARK  217  A    between atoms: _528  and  _530
REMARK  218  A    between atoms: _530  and  _531
REMARK  219  A    between atoms: _530  and  _533
REMARK  220  A    between atoms: _533  and  _534
REMARK  221  A    between atoms: _537  and  _539
REMARK  222  A    between atoms: _539  and  _540
REMARK  223  A    between atoms: _543  and  _545
REMARK  224  A    between atoms: _545  and  _546
REMARK  225  A    between atoms: _545  and  _548
REMARK  226  A    between atoms: _548  and  _549
REMARK  227  A    between atoms: _552  and  _554
REMARK  228  A    between atoms: _554  and  _555
REMARK  229  A    between atoms: _554  and  _557
REMARK  230  A    between atoms: _557  and  _558
REMARK  231  A    between atoms: _558  and  _559
REMARK  232  A    between atoms: _564  and  _566
REMARK  233  A    between atoms: _566  and  _567
REMARK  234  A    between atoms: _566  and  _569
REMARK  235  A    between atoms: _569  and  _570
REMARK  236  A    between atoms: _573  and  _575
REMARK  237  A    between atoms: _575  and  _576
REMARK  238  A    between atoms: _575  and  _578
REMARK  239  A    between atoms: _578  and  _579
REMARK  240  A    between atoms: _579  and  _580
REMARK  241  A    between atoms: _582  and  _584
REMARK  242  A    between atoms: _584  and  _585
REMARK  243  A    between atoms: _584  and  _587
REMARK  244  A    between atoms: _587  and  _588
REMARK  245  A    between atoms: _591  and  _593
REMARK  246  A    between atoms: _593  and  _594
REMARK  247  A    between atoms: _593  and  _596
REMARK  248  A    between atoms: _596  and  _597
REMARK  249  A    between atoms: _600  and  _602
REMARK  250  A    between atoms: _602  and  _603
REMARK  251  A    between atoms: _602  and  _605
REMARK  252  A    between atoms: _605  and  _606
REMARK  253  A    between atoms: _609  and  _611
REMARK  254  A    between atoms: _611  and  _612
REMARK  255  A    between atoms: _614  and  _616
REMARK  256  A    between atoms: _616  and  _617
REMARK                            x       y       z     vdW  Elec       q    Type
REMARK                         _______ _______ _______ _____ _____    ______ ____
ROOT
ATOM      1  C   ALA A   1      19.885  31.900  25.382  0.00  0.00    +0.238 C 
ATOM      2  O   ALA A   1      19.952  31.230  26.409  0.00  0.00    -0.274 OA
ATOM      3  N   VAL A   2      18.760  32.466  24.963  0.00  0.00    -0.298 N 
ATOM      4  H   VAL A   2      18.767  33.003  24.072  0.00  0.00    +0.150 HD
ENDROOT
BRANCH   1   5
ATOM      5  CA  ALA A   1      21.105  32.085  24.485  0.00  0.00    +0.145 C 
ATOM      6  CB  ALA A   1      21.654  33.508  24.631  0.00  0.00    +0.028 C 
BRANCH   5   7
ATOM      7  N   ALA A   1      20.723  31.818  23.096  0.00  0.00    -0.238 NA
ATOM      8  H   ALA A   1      20.944  32.524  22.365  0.00  0.00    +0.142 HD
ENDBRANCH   5   7
ENDBRANCH   1   5
BRANCH   3   9
ATOM      9  CA  VAL A   2      17.519  32.358  25.711  0.00  0.00    +0.137 C 
BRANCH   9  10
ATOM     10  CB  VAL A   2      16.400  33.157  25.027  0.00  0.00    +0.026 C 
ATOM     11  CG2 VAL A   2      15.087  32.989  25.780  0.00  0.00    +0.002 C 
ATOM     12  CG1 VAL A   2      16.781  34.619  24.944  0.00  0.00    +0.002 C 
ENDBRANCH   9  10
BRANCH   9  13
ATOM     13  C   VAL A   2      17.073  30.904  25.820  0.00  0.00    +0.227 C 
ATOM     14  O   VAL A   2      16.862  30.386  26.921  0.00  0.00    -0.286 OA
ENDBRANCH   9  13
ENDBRANCH   3   9
TORSDOF 5
REMARK  Name = ../refined-set-2016/1ork/1ork_pocket.pdb
REMARK  256 active torsions:
REMARK  status: ('A' for Active; 'I' for Inactive)
REMARK    1  A    between atoms: _1  and  _3
REMARK    2  A    between atoms: _3  and  _4
REMARK    3  A    between atoms: _7  and  _9
REMARK    4  A    between atoms: _9  and  _10
REMARK    5  A    between atoms: _9  and  _12
REMARK    6  A    between atoms: _15  and  _17
REMARK    7  A    between atoms: _17  and  _18
REMARK    8  A    between atoms: _17  and  _20
REMARK    9  A    between atoms: _20  and  _21
REMARK   10  A    between atoms: _24  and  _26
REMARK   11  A    between atoms: _26  and  _27
REMARK   12  A    between atoms: _30  and  _32
REMARK   13  A    between atoms: _32  and  _33
REMARK   14  A    between atoms: _32  and  _35
REMARK   15  A    between atoms: _35  and  _36
REMARK   16  A    between atoms: _41  and  _43
REMARK   17  A    between atoms: _43  and  _44
REMARK   18  A    between atoms: _43  and  _46
REMARK   19  A    between atoms: _46  and  _47
REMARK   20  A    between atoms: _50  and  _52
REMARK   21  A    between atoms: _52  and  _53
REMARK   22  A    between atoms: _52  and  _55
REMARK   23  A    between atoms: _55  and  _56
REMARK   24  A    between atoms: _61  and  _62
REMARK   25  A    between atoms: _64  and  _66
REMARK   26  A    between atoms: _66  and  _67
REMARK   27  A    between atoms: _66  and  _69
REMARK   28  A    between atoms: _69  and  _70
REMARK   29  A    between atoms: _72  and  _74
REMARK   30  A    between atoms: _74  and  _75
REMARK   31  A    between atoms: _74  and  _77
REMARK   32  A    between atoms: _77  and  _78
REMARK   33  A    between atoms: _81  and  _83
REMARK   34  A    between atoms: _83  and  _84
REMARK   35  A    between atoms: _83  and  _86
REMARK   36  A    between atoms: _86  and  _87
REMARK   37  A    between atoms: _93  and  _95
REMARK   38  A    between atoms: _95  and  _96
REMARK   39  A    between atoms: _95  and  _98
REMARK   40  A    between atoms: _98  and  _99
REMARK   41  A    between atoms: _102  and  _104
REMARK   42  A    between atoms: _104  and  _105
REMARK   43  A    between atoms: _104  and  _107
REMARK   44  A    between atoms: _107  and  _108
REMARK   45  A    between atoms: _113  and  _115
REMARK   46  A    between atoms: _115  and  _116
REMARK   47  A    between atoms: _115  and  _118
REMARK   48  A    between atoms: _118  and  _119
REMARK   49  A    between atoms: _124  and  _126
REMARK   50  A    between atoms: _126  and  _127
REMARK   51  A    between atoms: _130  and  _132
REMARK   52  A    between atoms: _132  and  _133
REMARK   53  A    between atoms: _132  and  _135
REMARK   54  A    between atoms: _135  and  _136
REMARK   55  A    between atoms: _136  and  _137
REMARK   56  A    between atoms: _139  and  _141
REMARK   57  A    between atoms: _141  and  _142
REMARK   58  A    between atoms: _141  and  _144
REMARK   59  A    between atoms: _144  and  _145
REMARK   60  A    between atoms: _147  and  _149
REMARK   61  A    between atoms: _149  and  _150
REMARK   62  A    between atoms: _149  and  _152
REMARK   63  A    between atoms: _152  and  _153
REMARK   64  A    between atoms: _159  and  _161
REMARK   65  A    between atoms: _161  and  _162
REMARK   66  A    between atoms: _161  and  _164
REMARK   67  A    between atoms: _164  and  _165
REMARK   68  A    between atoms: _165  and  _166
REMARK   69  A    between atoms: _166  and  _167
REMARK   70  A    between atoms: _176  and  _178
REMARK   71  A    between atoms: _178  and  _179
REMARK   72  A    between atoms: _178  and  _181
REMARK   73  A    between atoms: _181  and  _182
REMARK   74  A    between atoms: _185  and  _187
REMARK   75  A    between atoms: _187  and  _188
REMARK   76  A    between atoms: _187  and  _190
REMARK   77  A    between atoms: _190  and  _191
REMARK   78  A    between atoms: _196  and  _198
REMARK   79  A    between atoms: _198  and  _199
REMARK   80  A    between atoms: _198  and  _201
REMARK   81  A    between atoms: _201  and  _202
REMARK   82  A    between atoms: _205  and  _207
REMARK   83  A    between atoms: _207  and  _208
REMARK   84  A    between atoms: _210  and  _212
REMARK   85  A    between atoms: _212  and  _213
REMARK   86  A    between atoms: _212  and  _215
REMARK   87  A    between atoms: _215  and  _216
REMARK   88  A    between atoms: _219  and  _221
REMARK   89  A    between atoms: _221  and  _222
REMARK   90  A    between atoms: _221  and  _224
REMARK   91  A    between atoms: _224  and  _225
REMARK   92  A    between atoms: _225  and  _226
REMARK   93  A    between atoms: _226  and  _227
REMARK   94  A    between atoms: _237  and  _238
REMARK   95  A    between atoms: _243  and  _245
REMARK   96  A    between atoms: _245  and  _246
REMARK   97  A    between atoms: _245  and  _248
REMARK   98  A    between atoms: _248  and  _249
REMARK   99  A    between atoms: _252  and  _254
REMARK  100  A    between atoms: _254  and  _255
REMARK  101  A    between atoms: _254  and  _257
REMARK  102  A    between atoms: _257  and  _258
REMARK  103  A    between atoms: _258  and  _259
REMARK  104  A    between atoms: _259  and  _260
REMARK  105  A    between atoms: _260  and  _261
REMARK  106  A    between atoms: _265  and  _267
REMARK  107  A    between atoms: _267  and  _268
REMARK  108  A    between atoms: _267  and  _270
REMARK  109  A    between atoms: _270  and  _271
REMARK  110  A    between atoms: _271  and  _272
REMARK  111  A    between atoms: _277  and  _279
REMARK  112  A    between atoms: _279  and  _280
REMARK  113  A    between atoms: _279  and  _282
REMARK  114  A    between atoms: _282  and  _283
REMARK  115  A    between atoms: _288  and  _289
REMARK  116  A    between atoms: _291  and  _293
REMARK  117  A    between atoms: _293  and  _294
REMARK  118  A    between atoms: _293  and  _296
REMARK  119  A    between atoms: _296  and  _297
REMARK  120  A    between atoms: _300  and  _302
REMARK  121  A    between atoms: _302  and  _303
REMARK  122  A    between atoms: _302  and  _305
REMARK  123  A    between atoms: _305  and  _306
REMARK  124  A    between atoms: _309  and  _311
REMARK  125  A    between atoms: _311  and  _312
REMARK  126  A    between atoms: _311  and  _314
REMARK  127  A    between atoms: _317  and  _319
REMARK  128  A    between atoms: _319  and  _320
REMARK  129  A    between atoms: _319  and  _322
REMARK  130  A    between atoms: _322  and  _323
REMARK  131  A    between atoms: _323  and  _324
REMARK  132  A    between atoms: _327  and  _329
REMARK  133  A    between atoms: _329  and  _330
REMARK  134  A    between atoms: _329  and  _332
REMARK  135  A    between atoms: _332  and  _333
REMARK  136  A    between atoms: _333  and  _334
REMARK  137  A    between atoms: _339  and  _341
REMARK  138  A    between atoms: _341  and  _342
REMARK  139  A    between atoms: _341  and  _344
REMARK  140  A    between atoms: _344  and  _345
REMARK  141  A    between atoms: _348  and  _350
REMARK  142  A    between atoms: _350  and  _351
REMARK  143  A    between atoms: _353  and  _355
REMARK  144  A    between atoms: _355  and  _356
REMARK  145  A    between atoms: _355  and  _358
REMARK  146  A    between atoms: _358  and  _359
REMARK  147  A    between atoms: _362  and  _364
REMARK  148  A    between atoms: _364  and  _365
REMARK  149  A    between atoms: _368  and  _370
REMARK  150  A    between atoms: _370  and  _371
REMARK  151  A    between atoms: _370  and  _373
REMARK  152  A    between atoms: _373  and  _374
REMARK  153  A    between atoms: _377  and  _379
REMARK  154  A    between atoms: _379  and  _380
REMARK  155  A    between atoms: _379  and  _382
REMARK  156  A    between atoms: _382  and  _383
REMARK  157  A    between atoms: _385  and  _387
REMARK  158  A    between atoms: _387  and  _388
REMARK  159  A    between atoms: _391  and  _393
REMARK  160  A    between atoms: _393  and  _394
REMARK  161  A    between atoms: _393  and  _396
REMARK  162  A    between atoms: _399  and  _401
REMARK  163  A    between atoms: _401  and  _402
REMARK  164  A    between atoms: _401  and  _404
REMARK  165  A    between atoms: _404  and  _405
REMARK  166  A    between atoms: _407  and  _409
REMARK  167  A    between atoms: _409  and  _410
REMARK  168  A    between atoms: _409  and  _412
REMARK  169  A    between atoms: _412  and  _413
REMARK  170  A    between atoms: _418  and  _420
REMARK  171  A    between atoms: _420  and  _421
REMARK  172  A    between atoms: _420  and  _423
REMARK  173  A    between atoms: _423  and  _424
REMARK  174  A    between atoms: _427  and  _429
REMARK  175  A    between atoms: _429  and  _430
REMARK  176  A    between atoms: _429  and  _432
REMARK  177  A    between atoms: _432  and  _433
REMARK  178  A    between atoms: _436  and  _438
REMARK  179  A    between atoms: _438  and  _439
REMARK  180  A    between atoms: _441  and  _443
REMARK  181  A    between atoms: _443  and  _444
REMARK  182  A    between atoms: _447  and  _449
REMARK  183  A    between atoms: _449  and  _450
REMARK  184  A    between atoms: _449  and  _452
REMARK  185  A    between atoms: _455  and  _457
REMARK  186  A    between atoms: _457  and  _458
REMARK  187  A    between atoms: _457  and  _460
REMARK  188  A    between atoms: _460  and  _461
REMARK  189  A    between atoms: _464  and  _466
REMARK  190  A    between atoms: _466  and  _467
REMARK  191  A    between atoms: _466  and  _469
REMARK  192  A    between atoms: _469  and  _470
REMARK  193  A    between atoms: _470  and  _471
REMARK  194  A    between atoms: _474  and  _476
REMARK  195  A    between atoms: _476  and  _477
REMARK  196  A    between atoms: _476  and  _479
REMARK  197  A    between atoms: _479  and  _480
REMARK  198  A    between atoms: _480  and  _481
REMARK  199  A    between atoms: _486  and  _488
REMARK  200  A    between atoms: _488  and  _489
REMARK  201  A    between atoms: _488  and  _491
REMARK  202  A    between atoms: _491  and  _492
REMARK  203  A    between atoms: _492  and  _493
REMARK  204  A    between atoms: _498  and  _500
REMARK  205  A    between atoms: _500  and  _501
REMARK  206  A    between atoms: _500  and  _503
REMARK  207  A    between atoms: _503  and  _504
REMARK  208  A    between atoms: _504  and  _505
REMARK  209  A    between atoms: _508  and  _510
REMARK  210  A    between atoms: _510  and  _511
REMARK  211  A    between atoms: _510  and  _513
REMARK  212  A    between atoms: _513  and  _514
REMARK  213  A    between atoms: _519  and  _521
REMARK  214  A    between atoms: _521  and  _522
REMARK  215  A    between atoms: _521  and  _524
REMARK  216  A    between atoms: _524  and  _525
REMARK  217  A    between atoms: _528  and  _530
REMARK  218  A    between atoms: _530  and  _531
REMARK  219  A    between atoms: _530  and  _533
REMARK  220  A    between atoms: _533  and  _534
REMARK  221  A    between atoms: _537  and  _539
REMARK  222  A    between atoms: _539  and  _540
REMARK  223  A    between atoms: _543  and  _545
REMARK  224  A    between atoms: _545  and  _546
REMARK  225  A    between atoms: _545  and  _548
REMARK  226  A    between atoms: _548  and  _549
REMARK  227  A    between atoms: _552  and  _554
REMARK  228  A    between atoms: _554  and  _555
REMARK  229  A    between atoms: _554  and  _557
REMARK  230  A    between atoms: _557  and  _558
REMARK  231  A    between atoms: _558  and  _559
REMARK  232  A    between atoms: _564  and  _566
REMARK  233  A    between atoms: _566  and  _567
REMARK  234  A    between atoms: _566  and  _569
REMARK  235  A    between atoms: _569  and  _570
REMARK  236  A    between atoms: _573  and  _575
REMARK  237  A    between atoms: _575  and  _576
REMARK  238  A    between atoms: _575  and  _578
REMARK  239  A    between atoms: _578  and  _579
REMARK  240  A    between atoms: _579  and  _580
REMARK  241  A    between atoms: _582  and  _584
REMARK  242  A    between atoms: _584  and  _585
REMARK  243  A    between atoms: _584  and  _587
REMARK  244  A    between atoms: _587  and  _588
REMARK  245  A    between atoms: _591  and  _593
REMARK  246  A    between atoms: _593  and  _594
REMARK  247  A    between atoms: _593  and  _596
REMARK  248  A    between atoms: _596  and  _597
REMARK  249  A    between atoms: _600  and  _602
REMARK  250  A    between atoms: _602  and  _603
REMARK  251  A    between atoms: _602  and  _605
REMARK  252  A    between atoms: _605  and  _606
REMARK  253  A    between atoms: _609  and  _611
REMARK  254  A    between atoms: _611  and  _612
REMARK  255  A    between atoms: _614  and  _616
REMARK  256  A    between atoms: _616  and  _617
REMARK                            x       y       z     vdW  Elec       q    Type
REMARK                         _______ _______ _______ _____ _____    ______ ____
ROOT
ATOM      1  C   LEU A   1      17.265  27.855  29.804  0.00  0.00    +0.238 C 
ATOM      2  O   LEU A   1      17.080  27.059  30.718  0.00  0.00    -0.274 OA
ATOM      3  N   ALA A   2      16.278  28.281  29.027  0.00  0.00    -0.298 N 
ATOM      4  H   ALA A   2      16.482  28.931  28.241  0.00  0.00    +0.150 HD
ENDROOT
BRANCH   3   5
ATOM      5  CA  ALA A   2      14.905  27.842  29.270  0.00  0.00    +0.137 C 
ATOM      6  CB  ALA A   2      13.932  28.589  28.365  0.00  0.00    +0.030 C 
BRANCH   5   7
ATOM      7  C   ALA A   2      14.721  26.331  29.117  0.00  0.00    +0.227 C 
ATOM      8  O   ALA A   2      13.788  25.766  29.676  0.00  0.00    -0.286 OA
ENDBRANCH   5   7
ENDBRANCH   3   5
BRANCH   1   9
ATOM      9  CA  LEU A   1      18.675  28.355  29.497  0.00  0.00    +0.145 C 
BRANCH   9  10
ATOM     10  N   LEU A   1      19.039  28.249  28.084  0.00  0.00    -0.238 NA
ATOM     11  H   LEU A   1      19.201  29.120  27.539  0.00  0.00    +0.142 HD
ENDBRANCH   9  10
BRANCH   9  12
ATOM     12  CB  LEU A   1      18.855  29.788  30.009  0.00  0.00    +0.026 C 
BRANCH  12  13
ATOM     13  CG  LEU A   1      20.305  30.285  30.063  0.00  0.00    +0.002 C 
ATOM     14  CD2 LEU A   1      21.140  29.326  30.882  0.00  0.00    +0.000 C 
ATOM     15  CD1 LEU A   1      20.368  31.658  30.683  0.00  0.00    +0.000 C 
ENDBRANCH  12  13
ENDBRANCH   9  12
ENDBRANCH   1   9
TORSDOF 6
REMARK  Name = ../refined-set-2016/1ork/1ork_pocket.pdb
REMARK  256 active torsions:
REMARK  status: ('A' for Active; 'I' for Inactive)
REMARK    1  A    between atoms: _1  and  _3
REMARK    2  A    between atoms: _3  and  _4
REMARK    3  A    between atoms: _7  and  _9
REMARK    4  A    between atoms: _9  and  _10
REMARK    5  A    between atoms: _9  and  _12
REMARK    6  A    between atoms: _15  and  _17
REMARK    7  A    between atoms: _17  and  _18
REMARK    8  A    between atoms: _17  and  _20
REMARK    9  A    between atoms: _20  and  _21
REMARK   10  A    between atoms: _24  and  _26
REMARK   11  A    between atoms: _26  and  _27
REMARK   12  A    between atoms: _30  and  _32
REMARK   13  A    between atoms: _32  and  _33
REMARK   14  A    between atoms: _32  and  _35
REMARK   15  A    between atoms: _35  and  _36
REMARK   16  A    between atoms: _41  and  _43
REMARK   17  A    between atoms: _43  and  _44
REMARK   18  A    between atoms: _43  and  _46
REMARK   19  A    between atoms: _46  and  _47
REMARK   20  A    between atoms: _50  and  _52
REMARK   21  A    between atoms: _52  and  _53
REMARK   22  A    between atoms: _52  and  _55
REMARK   23  A    between atoms: _55  and  _56
REMARK   24  A    between atoms: _61  and  _62
REMARK   25  A    between atoms: _64  and  _66
REMARK   26  A    between atoms: _66  and  _67
REMARK   27  A    between atoms: _66  and  _69
REMARK   28  A    between atoms: _69  and  _70
REMARK   29  A    between atoms: _72  and  _74
REMARK   30  A    between atoms: _74  and  _75
REMARK   31  A    between atoms: _74  and  _77
REMARK   32  A    between atoms: _77  and  _78
REMARK   33  A    between atoms: _81  and  _83
REMARK   34  A    between atoms: _83  and  _84
REMARK   35  A    between atoms: _83  and  _86
REMARK   36  A    between atoms: _86  and  _87
REMARK   37  A    between atoms: _93  and  _95
REMARK   38  A    between atoms: _95  and  _96
REMARK   39  A    between atoms: _95  and  _98
REMARK   40  A    between atoms: _98  and  _99
REMARK   41  A    between atoms: _102  and  _104
REMARK   42  A    between atoms: _104  and  _105
REMARK   43  A    between atoms: _104  and  _107
REMARK   44  A    between atoms: _107  and  _108
REMARK   45  A    between atoms: _113  and  _115
REMARK   46  A    between atoms: _115  and  _116
REMARK   47  A    between atoms: _115  and  _118
REMARK   48  A    between atoms: _118  and  _119
REMARK   49  A    between atoms: _124  and  _126
REMARK   50  A    between atoms: _126  and  _127
REMARK   51  A    between atoms: _130  and  _132
REMARK   52  A    between atoms: _132  and  _133
REMARK   53  A    between atoms: _132  and  _135
REMARK   54  A    between atoms: _135  and  _136
REMARK   55  A    between atoms: _136  and  _137
REMARK   56  A    between atoms: _139  and  _141
REMARK   57  A    between atoms: _141  and  _142
REMARK   58  A    between atoms: _141  and  _144
REMARK   59  A    between atoms: _144  and  _145
REMARK   60  A    between atoms: _147  and  _149
REMARK   61  A    between atoms: _149  and  _150
REMARK   62  A    between atoms: _149  and  _152
REMARK   63  A    between atoms: _152  and  _153
REMARK   64  A    between atoms: _159  and  _161
REMARK   65  A    between atoms: _161  and  _162
REMARK   66  A    between atoms: _161  and  _164
REMARK   67  A    between atoms: _164  and  _165
REMARK   68  A    between atoms: _165  and  _166
REMARK   69  A    between atoms: _166  and  _167
REMARK   70  A    between atoms: _176  and  _178
REMARK   71  A    between atoms: _178  and  _179
REMARK   72  A    between atoms: _178  and  _181
REMARK   73  A    between atoms: _181  and  _182
REMARK   74  A    between atoms: _185  and  _187
REMARK   75  A    between atoms: _187  and  _188
REMARK   76  A    between atoms: _187  and  _190
REMARK   77  A    between atoms: _190  and  _191
REMARK   78  A    between atoms: _196  and  _198
REMARK   79  A    between atoms: _198  and  _199
REMARK   80  A    between atoms: _198  and  _201
REMARK   81  A    between atoms: _201  and  _202
REMARK   82  A    between atoms: _205  and  _207
REMARK   83  A    between atoms: _207  and  _208
REMARK   84  A    between atoms: _210  and  _212
REMARK   85  A    between atoms: _212  and  _213
REMARK   86  A    between atoms: _212  and  _215
REMARK   87  A    between atoms: _215  and  _216
REMARK   88  A    between atoms: _219  and  _221
REMARK   89  A    between atoms: _221  and  _222
REMARK   90  A    between atoms: _221  and  _224
REMARK   91  A    between atoms: _224  and  _225
REMARK   92  A    between atoms: _225  and  _226
REMARK   93  A    between atoms: _226  and  _227
REMARK   94  A    between atoms: _237  and  _238
REMARK   95  A    between atoms: _243  and  _245
REMARK   96  A    between atoms: _245  and  _246
REMARK   97  A    between atoms: _245  and  _248
REMARK   98  A    between atoms: _248  and  _249
REMARK   99  A    between atoms: _252  and  _254
REMARK  100  A    between atoms: _254  and  _255
REMARK  101  A    between atoms: _254  and  _257
REMARK  102  A    between atoms: _257  and  _258
REMARK  103  A    between atoms: _258  and  _259
REMARK  104  A    between atoms: _259  and  _260
REMARK  105  A    between atoms: _260  and  _261
REMARK  106  A    between atoms: _265  and  _267
REMARK  107  A    between atoms: _267  and  _268
REMARK  108  A    between atoms: _267  and  _270
REMARK  109  A    between atoms: _270  and  _271
REMARK  110  A    between atoms: _271  and  _272
REMARK  111  A    between atoms: _277  and  _279
REMARK  112  A    between atoms: _279  and  _280
REMARK  113  A    between atoms: _279  and  _282
REMARK  114  A    between atoms: _282  and  _283
REMARK  115  A    between atoms: _288  and  _289
REMARK  116  A    between atoms: _291  and  _293
REMARK  117  A    between atoms: _293  and  _294
REMARK  118  A    between atoms: _293  and  _296
REMARK  119  A    between atoms: _296  and  _297
REMARK  120  A    between atoms: _300  and  _302
REMARK  121  A    between atoms: _302  and  _303
REMARK  122  A    between atoms: _302  and  _305
REMARK  123  A    between atoms: _305  and  _306
REMARK  124  A    between atoms: _309  and  _311
REMARK  125  A    between atoms: _311  and  _312
REMARK  126  A    between atoms: _311  and  _314
REMARK  127  A    between atoms: _317  and  _319
REMARK  128  A    between atoms: _319  and  _320
REMARK  129  A    between atoms: _319  and  _322
REMARK  130  A    between atoms: _322  and  _323
REMARK  131  A    between atoms: _323  and  _324
REMARK  132  A    between atoms: _327  and  _329
REMARK  133  A    between atoms: _329  and  _330
REMARK  134  A    between atoms: _329  and  _332
REMARK  135  A    between atoms: _332  and  _333
REMARK  136  A    between atoms: _333  and  _334
REMARK  137  A    between atoms: _339  and  _341
REMARK  138  A    between atoms: _341  and  _342
REMARK  139  A    between atoms: _341  and  _344
REMARK  140  A    between atoms: _344  and  _345
REMARK  141  A    between atoms: _348  and  _350
REMARK  142  A    between atoms: _350  and  _351
REMARK  143  A    between atoms: _353  and  _355
REMARK  144  A    between atoms: _355  and  _356
REMARK  145  A    between atoms: _355  and  _358
REMARK  146  A    between atoms: _358  and  _359
REMARK  147  A    between atoms: _362  and  _364
REMARK  148  A    between atoms: _364  and  _365
REMARK  149  A    between atoms: _368  and  _370
REMARK  150  A    between atoms: _370  and  _371
REMARK  151  A    between atoms: _370  and  _373
REMARK  152  A    between atoms: _373  and  _374
REMARK  153  A    between atoms: _377  and  _379
REMARK  154  A    between atoms: _379  and  _380
REMARK  155  A    between atoms: _379  and  _382
REMARK  156  A    between atoms: _382  and  _383
REMARK  157  A    between atoms: _385  and  _387
REMARK  158  A    between atoms: _387  and  _388
REMARK  159  A    between atoms: _391  and  _393
REMARK  160  A    between atoms: _393  and  _394
REMARK  161  A    between atoms: _393  and  _396
REMARK  162  A    between atoms: _399  and  _401
REMARK  163  A    between atoms: _401  and  _402
REMARK  164  A    between atoms: _401  and  _404
REMARK  165  A    between atoms: _404  and  _405
REMARK  166  A    between atoms: _407  and  _409
REMARK  167  A    between atoms: _409  and  _410
REMARK  168  A    between atoms: _409  and  _412
REMARK  169  A    between atoms: _412  and  _413
REMARK  170  A    between atoms: _418  and  _420
REMARK  171  A    between atoms: _420  and  _421
REMARK  172  A    between atoms: _420  and  _423
REMARK  173  A    between atoms: _423  and  _424
REMARK  174  A    between atoms: _427  and  _429
REMARK  175  A    between atoms: _429  and  _430
REMARK  176  A    between atoms: _429  and  _432
REMARK  177  A    between atoms: _432  and  _433
REMARK  178  A    between atoms: _436  and  _438
REMARK  179  A    between atoms: _438  and  _439
REMARK  180  A    between atoms: _441  and  _443
REMARK  181  A    between atoms: _443  and  _444
REMARK  182  A    between atoms: _447  and  _449
REMARK  183  A    between atoms: _449  and  _450
REMARK  184  A    between atoms: _449  and  _452
REMARK  185  A    between atoms: _455  and  _457
REMARK  186  A    between atoms: _457  and  _458
REMARK  187  A    between atoms: _457  and  _460
REMARK  188  A    between atoms: _460  and  _461
REMARK  189  A    between atoms: _464  and  _466
REMARK  190  A    between atoms: _466  and  _467
REMARK  191  A    between atoms: _466  and  _469
REMARK  192  A    between atoms: _469  and  _470
REMARK  193  A    between atoms: _470  and  _471
REMARK  194  A    between atoms: _474  and  _476
REMARK  195  A    between atoms: _476  and  _477
REMARK  196  A    between atoms: _476  and  _479
REMARK  197  A    between atoms: _479  and  _480
REMARK  198  A    between atoms: _480  and  _481
REMARK  199  A    between atoms: _486  and  _488
REMARK  200  A    between atoms: _488  and  _489
REMARK  201  A    between atoms: _488  and  _491
REMARK  202  A    between atoms: _491  and  _492
REMARK  203  A    between atoms: _492  and  _493
REMARK  204  A    between atoms: _498  and  _500
REMARK  205  A    between atoms: _500  and  _501
REMARK  206  A    between atoms: _500  and  _503
REMARK  207  A    between atoms: _503  and  _504
REMARK  208  A    between atoms: _504  and  _505
REMARK  209  A    between atoms: _508  and  _510
REMARK  210  A    between atoms: _510  and  _511
REMARK  211  A    between atoms: _510  and  _513
REMARK  212  A    between atoms: _513  and  _514
REMARK  213  A    between atoms: _519  and  _521
REMARK  214  A    between atoms: _521  and  _522
REMARK  215  A    between atoms: _521  and  _524
REMARK  216  A    between atoms: _524  and  _525
REMARK  217  A    between atoms: _528  and  _530
REMARK  218  A    between atoms: _530  and  _531
REMARK  219  A    between atoms: _530  and  _533
REMARK  220  A    between atoms: _533  and  _534
REMARK  221  A    between atoms: _537  and  _539
REMARK  222  A    between atoms: _539  and  _540
REMARK  223  A    between atoms: _543  and  _545
REMARK  224  A    between atoms: _545  and  _546
REMARK  225  A    between atoms: _545  and  _548
REMARK  226  A    between atoms: _548  and  _549
REMARK  227  A    between atoms: _552  and  _554
REMARK  228  A    between atoms: _554  and  _555
REMARK  229  A    between atoms: _554  and  _557
REMARK  230  A    between atoms: _557  and  _558
REMARK  231  A    between atoms: _558  and  _559
REMARK  232  A    between atoms: _564  and  _566
REMARK  233  A    between atoms: _566  and  _567
REMARK  234  A    between atoms: _566  and  _569
REMARK  235  A    between atoms: _569  and  _570
REMARK  236  A    between atoms: _573  and  _575
REMARK  237  A    between atoms: _575  and  _576
REMARK  238  A    between atoms: _575  and  _578
REMARK  239  A    between atoms: _578  and  _579
REMARK  240  A    between atoms: _579  and  _580
REMARK  241  A    between atoms: _582  and  _584
REMARK  242  A    between atoms: _584  and  _585
REMARK  243  A    between atoms: _584  and  _587
REMARK  244  A    between atoms: _587  and  _588
REMARK  245  A    between atoms: _591  and  _593
REMARK  246  A    between atoms: _593  and  _594
REMARK  247  A    between atoms: _593  and  _596
REMARK  248  A    between atoms: _596  and  _597
REMARK  249  A    between atoms: _600  and  _602
REMARK  250  A    between atoms: _602  and  _603
REMARK  251  A    between atoms: _602  and  _605
REMARK  252  A    between atoms: _605  and  _606
REMARK  253  A    between atoms: _609  and  _611
REMARK  254  A    between atoms: _611  and  _612
REMARK  255  A    between atoms: _614  and  _616
REMARK  256  A    between atoms: _616  and  _617
REMARK                            x       y       z     vdW  Elec       q    Type
REMARK                         _______ _______ _______ _____ _____    ______ ____
ROOT
ATOM      1  CA  TYR A   3      17.311  25.663  39.013  0.00  0.00    +0.153 C 
ENDROOT
BRANCH   1   2
ATOM      2  C   TYR A   3      17.379  27.193  38.886  0.00  0.00    +0.241 C 
ATOM      3  O   TYR A   3      18.357  27.823  39.298  0.00  0.00    -0.273 OA
ATOM      4  N   SER A   4      16.324  27.782  38.327  0.00  0.00    -0.295 N 
ATOM      5  H   SER A   4      15.522  27.191  38.029  0.00  0.00    +0.150 HD
BRANCH   4   6
ATOM      6  CA  SER A   4      16.248  29.227  38.116  0.00  0.00    +0.178 C 
BRANCH   6   7
ATOM      7  C   SER A   4      15.595  29.997  39.263  0.00  0.00    +0.243 C 
ATOM      8  N   LEU A   5      14.555  29.414  39.858  0.00  0.00    -0.298 N 
ATOM      9  H   LEU A   5      14.234  28.488  39.508  0.00  0.00    +0.150 HD
ATOM     10  O   SER A   4      15.999  31.121  39.561  0.00  0.00    -0.273 OA
BRANCH   8  11
ATOM     11  CA  LEU A   5      13.847  30.023  40.982  0.00  0.00    +0.137 C 
BRANCH  11  12
ATOM     12  C   LEU A   5      14.113  29.161  42.209  0.00  0.00    +0.227 C 
ATOM     13  O   LEU A   5      14.257  27.942  42.093  0.00  0.00    -0.286 OA
ENDBRANCH  11  12
BRANCH  11  14
ATOM     14  CB  LEU A   5      12.335  30.099  40.721  0.00  0.00    +0.028 C 
BRANCH  14  15
ATOM     15  CG  LEU A   5      11.758  31.150  39.757  0.00  0.00    +0.002 C 
ATOM     16  CD2 LEU A   5      12.475  32.480  39.948  0.00  0.00    +0.000 C 
ATOM     17  CD1 LEU A   5      11.869  30.695  38.306  0.00  0.00    +0.000 C 
ENDBRANCH  14  15
ENDBRANCH  11  14
ENDBRANCH   8  11
ENDBRANCH   6   7
BRANCH   6  18
ATOM     18  CB  SER A   4      15.530  29.527  36.794  0.00  0.00    +0.166 C 
BRANCH  18  19
ATOM     19  OG  SER A   4      14.500  28.580  36.543  0.00  0.00    -0.380 OA
ATOM     20  H   SER A   4      14.055  28.798  35.686  0.00  0.00    +0.211 HD
ENDBRANCH  18  19
ENDBRANCH   6  18
ENDBRANCH   4   6
ENDBRANCH   1   2
BRANCH   1  22
ATOM     21  C   ASP A   2      16.227  24.591  37.116  0.00  0.00    +0.241 C 
ATOM     22  N   TYR A   3      17.353  24.982  37.714  0.00  0.00    -0.297 N 
ATOM     23  H   TYR A   3      18.269  24.803  37.256  0.00  0.00    +0.150 HD
ATOM     24  O   ASP A   2      15.117  24.787  37.618  0.00  0.00    -0.273 OA
BRANCH  21  25
ATOM     25  CA  ASP A   2      16.335  23.879  35.759  0.00  0.00    +0.160 C 
BRANCH  25  27
ATOM     26  C   HIS A   1      17.497  25.494  34.325  0.00  0.00    +0.239 C 
ATOM     27  N   ASP A   2      17.406  24.274  34.843  0.00  0.00    -0.297 N 
ATOM     28  H   ASP A   2      18.127  23.569  34.587  0.00  0.00    +0.150 HD
ATOM     29  O   HIS A   1      16.713  26.394  34.591  0.00  0.00    -0.274 OA
BRANCH  26  30
ATOM     30  CA  HIS A   1      18.665  25.727  33.371  0.00  0.00    +0.151 C 
BRANCH  30  31
ATOM     31  N   HIS A   1      18.389  25.041  32.117  0.00  0.00    -0.238 NA
ATOM     32  H   HIS A   1      17.996  25.590  31.326  0.00  0.00    +0.142 HD
ENDBRANCH  30  31
BRANCH  30  33
ATOM     33  CB  HIS A   1      18.858  27.212  33.067  0.00  0.00    +0.074 C 
BRANCH  33  34
ATOM     34  CG  HIS A   1      19.202  28.054  34.252  0.00  0.00    +0.082 A 
ATOM     35  ND1 HIS A   1      20.019  27.617  35.272  0.00  0.00    -0.227 NA
ATOM     36  CE1 HIS A   1      20.177  28.590  36.152  0.00  0.00    +0.199 A 
ATOM     37  NE2 HIS A   1      19.486  29.638  35.738  0.00  0.00    -0.221 NA
ATOM     38  CD2 HIS A   1      18.867  29.328  34.555  0.00  0.00    +0.115 A 
ENDBRANCH  33  34
ENDBRANCH  30  33
ENDBRANCH  26  30
ENDBRANCH  25  27
BRANCH  25  39
ATOM     39  CB  ASP A   2      16.321  22.353  35.956  0.00  0.00    +0.143 C 
BRANCH  39  40
ATOM     40  CG  ASP A   2      17.672  21.790  36.404  0.00  0.00    +0.367 C 
ATOM     41  OD2 ASP A   2      17.755  20.556  36.595  0.00  0.00    -0.246 OA
ATOM     42  OD1 ASP A   2      18.652  22.559  36.559  0.00  0.00    -0.246 OA
ENDBRANCH  39  40
ENDBRANCH  25  39
ENDBRANCH  21  25
ENDBRANCH   1  22
BRANCH   1  43
ATOM     43  CB  TYR A   3      18.419  25.144  39.940  0.00  0.00    +0.055 C 
BRANCH  43  44
ATOM     44  CG  TYR A   3      17.940  24.888  41.360  0.00  0.00    -0.020 A 
ATOM     45  CD2 TYR A   3      17.701  25.947  42.240  0.00  0.00    -0.001 A 
ATOM     46  CE2 TYR A   3      17.217  25.718  43.525  0.00  0.00    +0.036 A 
ATOM     47  CZ  TYR A   3      16.969  24.421  43.944  0.00  0.00    +0.134 A 
ATOM     48  CE1 TYR A   3      17.202  23.354  43.091  0.00  0.00    +0.036 A 
ATOM     49  CD1 TYR A   3      17.684  23.590  41.809  0.00  0.00    -0.001 A 
BRANCH  47  50
ATOM     50  OH  TYR A   3      16.487  24.194  45.214  0.00  0.00    -0.506 OA
ATOM     51  HH  TYR A   3      16.379  25.059  45.684  0.00  0.00    +0.292 HD
ENDBRANCH  47  50
ENDBRANCH  43  44
ENDBRANCH   1  43
TORSDOF 21
REMARK  Name = ../refined-set-2016/1ork/1ork_pocket.pdb
REMARK  256 active torsions:
REMARK  status: ('A' for Active; 'I' for Inactive)
REMARK    1  A    between atoms: _1  and  _3
REMARK    2  A    between atoms: _3  and  _4
REMARK    3  A    between atoms: _7  and  _9
REMARK    4  A    between atoms: _9  and  _10
REMARK    5  A    between atoms: _9  and  _12
REMARK    6  A    between atoms: _15  and  _17
REMARK    7  A    between atoms: _17  and  _18
REMARK    8  A    between atoms: _17  and  _20
REMARK    9  A    between atoms: _20  and  _21
REMARK   10  A    between atoms: _24  and  _26
REMARK   11  A    between atoms: _26  and  _27
REMARK   12  A    between atoms: _30  and  _32
REMARK   13  A    between atoms: _32  and  _33
REMARK   14  A    between atoms: _32  and  _35
REMARK   15  A    between atoms: _35  and  _36
REMARK   16  A    between atoms: _41  and  _43
REMARK   17  A    between atoms: _43  and  _44
REMARK   18  A    between atoms: _43  and  _46
REMARK   19  A    between atoms: _46  and  _47
REMARK   20  A    between atoms: _50  and  _52
REMARK   21  A    between atoms: _52  and  _53
REMARK   22  A    between atoms: _52  and  _55
REMARK   23  A    between atoms: _55  and  _56
REMARK   24  A    between atoms: _61  and  _62
REMARK   25  A    between atoms: _64  and  _66
REMARK   26  A    between atoms: _66  and  _67
REMARK   27  A    between atoms: _66  and  _69
REMARK   28  A    between atoms: _69  and  _70
REMARK   29  A    between atoms: _72  and  _74
REMARK   30  A    between atoms: _74  and  _75
REMARK   31  A    between atoms: _74  and  _77
REMARK   32  A    between atoms: _77  and  _78
REMARK   33  A    between atoms: _81  and  _83
REMARK   34  A    between atoms: _83  and  _84
REMARK   35  A    between atoms: _83  and  _86
REMARK   36  A    between atoms: _86  and  _87
REMARK   37  A    between atoms: _93  and  _95
REMARK   38  A    between atoms: _95  and  _96
REMARK   39  A    between atoms: _95  and  _98
REMARK   40  A    between atoms: _98  and  _99
REMARK   41  A    between atoms: _102  and  _104
REMARK   42  A    between atoms: _104  and  _105
REMARK   43  A    between atoms: _104  and  _107
REMARK   44  A    between atoms: _107  and  _108
REMARK   45  A    between atoms: _113  and  _115
REMARK   46  A    between atoms: _115  and  _116
REMARK   47  A    between atoms: _115  and  _118
REMARK   48  A    between atoms: _118  and  _119
REMARK   49  A    between atoms: _124  and  _126
REMARK   50  A    between atoms: _126  and  _127
REMARK   51  A    between atoms: _130  and  _132
REMARK   52  A    between atoms: _132  and  _133
REMARK   53  A    between atoms: _132  and  _135
REMARK   54  A    between atoms: _135  and  _136
REMARK   55  A    between atoms: _136  and  _137
REMARK   56  A    between atoms: _139  and  _141
REMARK   57  A    between atoms: _141  and  _142
REMARK   58  A    between atoms: _141  and  _144
REMARK   59  A    between atoms: _144  and  _145
REMARK   60  A    between atoms: _147  and  _149
REMARK   61  A    between atoms: _149  and  _150
REMARK   62  A    between atoms: _149  and  _152
REMARK   63  A    between atoms: _152  and  _153
REMARK   64  A    between atoms: _159  and  _161
REMARK   65  A    between atoms: _161  and  _162
REMARK   66  A    between atoms: _161  and  _164
REMARK   67  A    between atoms: _164  and  _165
REMARK   68  A    between atoms: _165  and  _166
REMARK   69  A    between atoms: _166  and  _167
REMARK   70  A    between atoms: _176  and  _178
REMARK   71  A    between atoms: _178  and  _179
REMARK   72  A    between atoms: _178  and  _181
REMARK   73  A    between atoms: _181  and  _182
REMARK   74  A    between atoms: _185  and  _187
REMARK   75  A    between atoms: _187  and  _188
REMARK   76  A    between atoms: _187  and  _190
REMARK   77  A    between atoms: _190  and  _191
REMARK   78  A    between atoms: _196  and  _198
REMARK   79  A    between atoms: _198  and  _199
REMARK   80  A    between atoms: _198  and  _201
REMARK   81  A    between atoms: _201  and  _202
REMARK   82  A    between atoms: _205  and  _207
REMARK   83  A    between atoms: _207  and  _208
REMARK   84  A    between atoms: _210  and  _212
REMARK   85  A    between atoms: _212  and  _213
REMARK   86  A    between atoms: _212  and  _215
REMARK   87  A    between atoms: _215  and  _216
REMARK   88  A    between atoms: _219  and  _221
REMARK   89  A    between atoms: _221  and  _222
REMARK   90  A    between atoms: _221  and  _224
REMARK   91  A    between atoms: _224  and  _225
REMARK   92  A    between atoms: _225  and  _226
REMARK   93  A    between atoms: _226  and  _227
REMARK   94  A    between atoms: _237  and  _238
REMARK   95  A    between atoms: _243  and  _245
REMARK   96  A    between atoms: _245  and  _246
REMARK   97  A    between atoms: _245  and  _248
REMARK   98  A    between atoms: _248  and  _249
REMARK   99  A    between atoms: _252  and  _254
REMARK  100  A    between atoms: _254  and  _255
REMARK  101  A    between atoms: _254  and  _257
REMARK  102  A    between atoms: _257  and  _258
REMARK  103  A    between atoms: _258  and  _259
REMARK  104  A    between atoms: _259  and  _260
REMARK  105  A    between atoms: _260  and  _261
REMARK  106  A    between atoms: _265  and  _267
REMARK  107  A    between atoms: _267  and  _268
REMARK  108  A    between atoms: _267  and  _270
REMARK  109  A    between atoms: _270  and  _271
REMARK  110  A    between atoms: _271  and  _272
REMARK  111  A    between atoms: _277  and  _279
REMARK  112  A    between atoms: _279  and  _280
REMARK  113  A    between atoms: _279  and  _282
REMARK  114  A    between atoms: _282  and  _283
REMARK  115  A    between atoms: _288  and  _289
REMARK  116  A    between atoms: _291  and  _293
REMARK  117  A    between atoms: _293  and  _294
REMARK  118  A    between atoms: _293  and  _296
REMARK  119  A    between atoms: _296  and  _297
REMARK  120  A    between atoms: _300  and  _302
REMARK  121  A    between atoms: _302  and  _303
REMARK  122  A    between atoms: _302  and  _305
REMARK  123  A    between atoms: _305  and  _306
REMARK  124  A    between atoms: _309  and  _311
REMARK  125  A    between atoms: _311  and  _312
REMARK  126  A    between atoms: _311  and  _314
REMARK  127  A    between atoms: _317  and  _319
REMARK  128  A    between atoms: _319  and  _320
REMARK  129  A    between atoms: _319  and  _322
REMARK  130  A    between atoms: _322  and  _323
REMARK  131  A    between atoms: _323  and  _324
REMARK  132  A    between atoms: _327  and  _329
REMARK  133  A    between atoms: _329  and  _330
REMARK  134  A    between atoms: _329  and  _332
REMARK  135  A    between atoms: _332  and  _333
REMARK  136  A    between atoms: _333  and  _334
REMARK  137  A    between atoms: _339  and  _341
REMARK  138  A    between atoms: _341  and  _342
REMARK  139  A    between atoms: _341  and  _344
REMARK  140  A    between atoms: _344  and  _345
REMARK  141  A    between atoms: _348  and  _350
REMARK  142  A    between atoms: _350  and  _351
REMARK  143  A    between atoms: _353  and  _355
REMARK  144  A    between atoms: _355  and  _356
REMARK  145  A    between atoms: _355  and  _358
REMARK  146  A    between atoms: _358  and  _359
REMARK  147  A    between atoms: _362  and  _364
REMARK  148  A    between atoms: _364  and  _365
REMARK  149  A    between atoms: _368  and  _370
REMARK  150  A    between atoms: _370  and  _371
REMARK  151  A    between atoms: _370  and  _373
REMARK  152  A    between atoms: _373  and  _374
REMARK  153  A    between atoms: _377  and  _379
REMARK  154  A    between atoms: _379  and  _380
REMARK  155  A    between atoms: _379  and  _382
REMARK  156  A    between atoms: _382  and  _383
REMARK  157  A    between atoms: _385  and  _387
REMARK  158  A    between atoms: _387  and  _388
REMARK  159  A    between atoms: _391  and  _393
REMARK  160  A    between atoms: _393  and  _394
REMARK  161  A    between atoms: _393  and  _396
REMARK  162  A    between atoms: _399  and  _401
REMARK  163  A    between atoms: _401  and  _402
REMARK  164  A    between atoms: _401  and  _404
REMARK  165  A    between atoms: _404  and  _405
REMARK  166  A    between atoms: _407  and  _409
REMARK  167  A    between atoms: _409  and  _410
REMARK  168  A    between atoms: _409  and  _412
REMARK  169  A    between atoms: _412  and  _413
REMARK  170  A    between atoms: _418  and  _420
REMARK  171  A    between atoms: _420  and  _421
REMARK  172  A    between atoms: _420  and  _423
REMARK  173  A    between atoms: _423  and  _424
REMARK  174  A    between atoms: _427  and  _429
REMARK  175  A    between atoms: _429  and  _430
REMARK  176  A    between atoms: _429  and  _432
REMARK  177  A    between atoms: _432  and  _433
REMARK  178  A    between atoms: _436  and  _438
REMARK  179  A    between atoms: _438  and  _439
REMARK  180  A    between atoms: _441  and  _443
REMARK  181  A    between atoms: _443  and  _444
REMARK  182  A    between atoms: _447  and  _449
REMARK  183  A    between atoms: _449  and  _450
REMARK  184  A    between atoms: _449  and  _452
REMARK  185  A    between atoms: _455  and  _457
REMARK  186  A    between atoms: _457  and  _458
REMARK  187  A    between atoms: _457  and  _460
REMARK  188  A    between atoms: _460  and  _461
REMARK  189  A    between atoms: _464  and  _466
REMARK  190  A    between atoms: _466  and  _467
REMARK  191  A    between atoms: _466  and  _469
REMARK  192  A    between atoms: _469  and  _470
REMARK  193  A    between atoms: _470  and  _471
REMARK  194  A    between atoms: _474  and  _476
REMARK  195  A    between atoms: _476  and  _477
REMARK  196  A    between atoms: _476  and  _479
REMARK  197  A    between atoms: _479  and  _480
REMARK  198  A    between atoms: _480  and  _481
REMARK  199  A    between atoms: _486  and  _488
REMARK  200  A    between atoms: _488  and  _489
REMARK  201  A    between atoms: _488  and  _491
REMARK  202  A    between atoms: _491  and  _492
REMARK  203  A    between atoms: _492  and  _493
REMARK  204  A    between atoms: _498  and  _500
REMARK  205  A    between atoms: _500  and  _501
REMARK  206  A    between atoms: _500  and  _503
REMARK  207  A    between atoms: _503  and  _504
REMARK  208  A    between atoms: _504  and  _505
REMARK  209  A    between atoms: _508  and  _510
REMARK  210  A    between atoms: _510  and  _511
REMARK  211  A    between atoms: _510  and  _513
REMARK  212  A    between atoms: _513  and  _514
REMARK  213  A    between atoms: _519  and  _521
REMARK  214  A    between atoms: _521  and  _522
REMARK  215  A    between atoms: _521  and  _524
REMARK  216  A    between atoms: _524  and  _525
REMARK  217  A    between atoms: _528  and  _530
REMARK  218  A    between atoms: _530  and  _531
REMARK  219  A    between atoms: _530  and  _533
REMARK  220  A    between atoms: _533  and  _534
REMARK  221  A    between atoms: _537  and  _539
REMARK  222  A    between atoms: _539  and  _540
REMARK  223  A    between atoms: _543  and  _545
REMARK  224  A    between atoms: _545  and  _546
REMARK  225  A    between atoms: _545  and  _548
REMARK  226  A    between atoms: _548  and  _549
REMARK  227  A    between atoms: _552  and  _554
REMARK  228  A    between atoms: _554  and  _555
REMARK  229  A    between atoms: _554  and  _557
REMARK  230  A    between atoms: _557  and  _558
REMARK  231  A    between atoms: _558  and  _559
REMARK  232  A    between atoms: _564  and  _566
REMARK  233  A    between atoms: _566  and  _567
REMARK  234  A    between atoms: _566  and  _569
REMARK  235  A    between atoms: _569  and  _570
REMARK  236  A    between atoms: _573  and  _575
REMARK  237  A    between atoms: _575  and  _576
REMARK  238  A    between atoms: _575  and  _578
REMARK  239  A    between atoms: _578  and  _579
REMARK  240  A    between atoms: _579  and  _580
REMARK  241  A    between atoms: _582  and  _584
REMARK  242  A    between atoms: _584  and  _585
REMARK  243  A    between atoms: _584  and  _587
REMARK  244  A    between atoms: _587  and  _588
REMARK  245  A    between atoms: _591  and  _593
REMARK  246  A    between atoms: _593  and  _594
REMARK  247  A    between atoms: _593  and  _596
REMARK  248  A    between atoms: _596  and  _597
REMARK  249  A    between atoms: _600  and  _602
REMARK  250  A    between atoms: _602  and  _603
REMARK  251  A    between atoms: _602  and  _605
REMARK  252  A    between atoms: _605  and  _606
REMARK  253  A    between atoms: _609  and  _611
REMARK  254  A    between atoms: _611  and  _612
REMARK  255  A    between atoms: _614  and  _616
REMARK  256  A    between atoms: _616  and  _617
REMARK                            x       y       z     vdW  Elec       q    Type
REMARK                         _______ _______ _______ _____ _____    ______ ____
ROOT
ATOM      1  C   PHE A   1      21.353  29.460  45.141  0.00  0.00    +0.239 C 
ATOM      2  N   LEU A   2      22.193  30.386  45.600  0.00  0.00    -0.298 N 
ATOM      3  H   LEU A   2      22.022  30.813  46.533  0.00  0.00    +0.150 HD
ATOM      4  O   PHE A   1      21.521  28.880  44.078  0.00  0.00    -0.274 OA
ENDROOT
BRANCH   1   5
ATOM      5  CA  PHE A   1      20.174  29.082  46.031  0.00  0.00    +0.149 C 
BRANCH   5   6
ATOM      6  N   PHE A   1      20.697  28.651  47.319  0.00  0.00    -0.238 NA
ATOM      7  H   PHE A   1      20.491  29.213  48.169  0.00  0.00    +0.142 HD
ENDBRANCH   5   6
BRANCH   5   8
ATOM      8  CB  PHE A   1      19.230  30.278  46.176  0.00  0.00    +0.053 C 
BRANCH   8   9
ATOM      9  CG  PHE A   1      18.840  30.904  44.855  0.00  0.00    -0.020 A 
ATOM     10  CD2 PHE A   1      19.233  32.204  44.542  0.00  0.00    -0.004 A 
ATOM     11  CE2 PHE A   1      18.897  32.779  43.322  0.00  0.00    -0.000 A 
ATOM     12  CZ  PHE A   1      18.161  32.056  42.405  0.00  0.00    -0.000 A 
ATOM     13  CE1 PHE A   1      17.760  30.754  42.704  0.00  0.00    -0.000 A 
ATOM     14  CD1 PHE A   1      18.099  30.186  43.922  0.00  0.00    -0.004 A 
ENDBRANCH   8   9
ENDBRANCH   5   8
ENDBRANCH   1   5
BRANCH   2  15
ATOM     15  CA  LEU A   2      23.348  30.812  44.818  0.00  0.00    +0.137 C 
BRANCH  15  16
ATOM     16  C   LEU A   2      24.174  29.622  44.339  0.00  0.00    +0.227 C 
ATOM     17  O   LEU A   2      24.611  29.597  43.190  0.00  0.00    -0.286 OA
ENDBRANCH  15  16
BRANCH  15  18
ATOM     18  CB  LEU A   2      24.205  31.805  45.604  0.00  0.00    +0.028 C 
BRANCH  18  19
ATOM     19  CG  LEU A   2      24.201  33.246  45.076  0.00  0.00    +0.002 C 
ATOM     20  CD2 LEU A   2      24.796  34.182  46.108  0.00  0.00    +0.000 C 
ATOM     21  CD1 LEU A   2      22.800  33.687  44.682  0.00  0.00    +0.000 C 
ENDBRANCH  18  19
ENDBRANCH  15  18
ENDBRANCH   2  15
TORSDOF 8
REMARK  Name = ../refined-set-2016/1ork/1ork_pocket.pdb
REMARK  256 active torsions:
REMARK  status: ('A' for Active; 'I' for Inactive)
REMARK    1  A    between atoms: _1  and  _3
REMARK    2  A    between atoms: _3  and  _4
REMARK    3  A    between atoms: _7  and  _9
REMARK    4  A    between atoms: _9  and  _10
REMARK    5  A    between atoms: _9  and  _12
REMARK    6  A    between atoms: _15  and  _17
REMARK    7  A    between atoms: _17  and  _18
REMARK    8  A    between atoms: _17  and  _20
REMARK    9  A    between atoms: _20  and  _21
REMARK   10  A    between atoms: _24  and  _26
REMARK   11  A    between atoms: _26  and  _27
REMARK   12  A    between atoms: _30  and  _32
REMARK   13  A    between atoms: _32  and  _33
REMARK   14  A    between atoms: _32  and  _35
REMARK   15  A    between atoms: _35  and  _36
REMARK   16  A    between atoms: _41  and  _43
REMARK   17  A    between atoms: _43  and  _44
REMARK   18  A    between atoms: _43  and  _46
REMARK   19  A    between atoms: _46  and  _47
REMARK   20  A    between atoms: _50  and  _52
REMARK   21  A    between atoms: _52  and  _53
REMARK   22  A    between atoms: _52  and  _55
REMARK   23  A    between atoms: _55  and  _56
REMARK   24  A    between atoms: _61  and  _62
REMARK   25  A    between atoms: _64  and  _66
REMARK   26  A    between atoms: _66  and  _67
REMARK   27  A    between atoms: _66  and  _69
REMARK   28  A    between atoms: _69  and  _70
REMARK   29  A    between atoms: _72  and  _74
REMARK   30  A    between atoms: _74  and  _75
REMARK   31  A    between atoms: _74  and  _77
REMARK   32  A    between atoms: _77  and  _78
REMARK   33  A    between atoms: _81  and  _83
REMARK   34  A    between atoms: _83  and  _84
REMARK   35  A    between atoms: _83  and  _86
REMARK   36  A    between atoms: _86  and  _87
REMARK   37  A    between atoms: _93  and  _95
REMARK   38  A    between atoms: _95  and  _96
REMARK   39  A    between atoms: _95  and  _98
REMARK   40  A    between atoms: _98  and  _99
REMARK   41  A    between atoms: _102  and  _104
REMARK   42  A    between atoms: _104  and  _105
REMARK   43  A    between atoms: _104  and  _107
REMARK   44  A    between atoms: _107  and  _108
REMARK   45  A    between atoms: _113  and  _115
REMARK   46  A    between atoms: _115  and  _116
REMARK   47  A    between atoms: _115  and  _118
REMARK   48  A    between atoms: _118  and  _119
REMARK   49  A    between atoms: _124  and  _126
REMARK   50  A    between atoms: _126  and  _127
REMARK   51  A    between atoms: _130  and  _132
REMARK   52  A    between atoms: _132  and  _133
REMARK   53  A    between atoms: _132  and  _135
REMARK   54  A    between atoms: _135  and  _136
REMARK   55  A    between atoms: _136  and  _137
REMARK   56  A    between atoms: _139  and  _141
REMARK   57  A    between atoms: _141  and  _142
REMARK   58  A    between atoms: _141  and  _144
REMARK   59  A    between atoms: _144  and  _145
REMARK   60  A    between atoms: _147  and  _149
REMARK   61  A    between atoms: _149  and  _150
REMARK   62  A    between atoms: _149  and  _152
REMARK   63  A    between atoms: _152  and  _153
REMARK   64  A    between atoms: _159  and  _161
REMARK   65  A    between atoms: _161  and  _162
REMARK   66  A    between atoms: _161  and  _164
REMARK   67  A    between atoms: _164  and  _165
REMARK   68  A    between atoms: _165  and  _166
REMARK   69  A    between atoms: _166  and  _167
REMARK   70  A    between atoms: _176  and  _178
REMARK   71  A    between atoms: _178  and  _179
REMARK   72  A    between atoms: _178  and  _181
REMARK   73  A    between atoms: _181  and  _182
REMARK   74  A    between atoms: _185  and  _187
REMARK   75  A    between atoms: _187  and  _188
REMARK   76  A    between atoms: _187  and  _190
REMARK   77  A    between atoms: _190  and  _191
REMARK   78  A    between atoms: _196  and  _198
REMARK   79  A    between atoms: _198  and  _199
REMARK   80  A    between atoms: _198  and  _201
REMARK   81  A    between atoms: _201  and  _202
REMARK   82  A    between atoms: _205  and  _207
REMARK   83  A    between atoms: _207  and  _208
REMARK   84  A    between atoms: _210  and  _212
REMARK   85  A    between atoms: _212  and  _213
REMARK   86  A    between atoms: _212  and  _215
REMARK   87  A    between atoms: _215  and  _216
REMARK   88  A    between atoms: _219  and  _221
REMARK   89  A    between atoms: _221  and  _222
REMARK   90  A    between atoms: _221  and  _224
REMARK   91  A    between atoms: _224  and  _225
REMARK   92  A    between atoms: _225  and  _226
REMARK   93  A    between atoms: _226  and  _227
REMARK   94  A    between atoms: _237  and  _238
REMARK   95  A    between atoms: _243  and  _245
REMARK   96  A    between atoms: _245  and  _246
REMARK   97  A    between atoms: _245  and  _248
REMARK   98  A    between atoms: _248  and  _249
REMARK   99  A    between atoms: _252  and  _254
REMARK  100  A    between atoms: _254  and  _255
REMARK  101  A    between atoms: _254  and  _257
REMARK  102  A    between atoms: _257  and  _258
REMARK  103  A    between atoms: _258  and  _259
REMARK  104  A    between atoms: _259  and  _260
REMARK  105  A    between atoms: _260  and  _261
REMARK  106  A    between atoms: _265  and  _267
REMARK  107  A    between atoms: _267  and  _268
REMARK  108  A    between atoms: _267  and  _270
REMARK  109  A    between atoms: _270  and  _271
REMARK  110  A    between atoms: _271  and  _272
REMARK  111  A    between atoms: _277  and  _279
REMARK  112  A    between atoms: _279  and  _280
REMARK  113  A    between atoms: _279  and  _282
REMARK  114  A    between atoms: _282  and  _283
REMARK  115  A    between atoms: _288  and  _289
REMARK  116  A    between atoms: _291  and  _293
REMARK  117  A    between atoms: _293  and  _294
REMARK  118  A    between atoms: _293  and  _296
REMARK  119  A    between atoms: _296  and  _297
REMARK  120  A    between atoms: _300  and  _302
REMARK  121  A    between atoms: _302  and  _303
REMARK  122  A    between atoms: _302  and  _305
REMARK  123  A    between atoms: _305  and  _306
REMARK  124  A    between atoms: _309  and  _311
REMARK  125  A    between atoms: _311  and  _312
REMARK  126  A    between atoms: _311  and  _314
REMARK  127  A    between atoms: _317  and  _319
REMARK  128  A    between atoms: _319  and  _320
REMARK  129  A    between atoms: _319  and  _322
REMARK  130  A    between atoms: _322  and  _323
REMARK  131  A    between atoms: _323  and  _324
REMARK  132  A    between atoms: _327  and  _329
REMARK  133  A    between atoms: _329  and  _330
REMARK  134  A    between atoms: _329  and  _332
REMARK  135  A    between atoms: _332  and  _333
REMARK  136  A    between atoms: _333  and  _334
REMARK  137  A    between atoms: _339  and  _341
REMARK  138  A    between atoms: _341  and  _342
REMARK  139  A    between atoms: _341  and  _344
REMARK  140  A    between atoms: _344  and  _345
REMARK  141  A    between atoms: _348  and  _350
REMARK  142  A    between atoms: _350  and  _351
REMARK  143  A    between atoms: _353  and  _355
REMARK  144  A    between atoms: _355  and  _356
REMARK  145  A    between atoms: _355  and  _358
REMARK  146  A    between atoms: _358  and  _359
REMARK  147  A    between atoms: _362  and  _364
REMARK  148  A    between atoms: _364  and  _365
REMARK  149  A    between atoms: _368  and  _370
REMARK  150  A    between atoms: _370  and  _371
REMARK  151  A    between atoms: _370  and  _373
REMARK  152  A    between atoms: _373  and  _374
REMARK  153  A    between atoms: _377  and  _379
REMARK  154  A    between atoms: _379  and  _380
REMARK  155  A    between atoms: _379  and  _382
REMARK  156  A    between atoms: _382  and  _383
REMARK  157  A    between atoms: _385  and  _387
REMARK  158  A    between atoms: _387  and  _388
REMARK  159  A    between atoms: _391  and  _393
REMARK  160  A    between atoms: _393  and  _394
REMARK  161  A    between atoms: _393  and  _396
REMARK  162  A    between atoms: _399  and  _401
REMARK  163  A    between atoms: _401  and  _402
REMARK  164  A    between atoms: _401  and  _404
REMARK  165  A    between atoms: _404  and  _405
REMARK  166  A    between atoms: _407  and  _409
REMARK  167  A    between atoms: _409  and  _410
REMARK  168  A    between atoms: _409  and  _412
REMARK  169  A    between atoms: _412  and  _413
REMARK  170  A    between atoms: _418  and  _420
REMARK  171  A    between atoms: _420  and  _421
REMARK  172  A    between atoms: _420  and  _423
REMARK  173  A    between atoms: _423  and  _424
REMARK  174  A    between atoms: _427  and  _429
REMARK  175  A    between atoms: _429  and  _430
REMARK  176  A    between atoms: _429  and  _432
REMARK  177  A    between atoms: _432  and  _433
REMARK  178  A    between atoms: _436  and  _438
REMARK  179  A    between atoms: _438  and  _439
REMARK  180  A    between atoms: _441  and  _443
REMARK  181  A    between atoms: _443  and  _444
REMARK  182  A    between atoms: _447  and  _449
REMARK  183  A    between atoms: _449  and  _450
REMARK  184  A    between atoms: _449  and  _452
REMARK  185  A    between atoms: _455  and  _457
REMARK  186  A    between atoms: _457  and  _458
REMARK  187  A    between atoms: _457  and  _460
REMARK  188  A    between atoms: _460  and  _461
REMARK  189  A    between atoms: _464  and  _466
REMARK  190  A    between atoms: _466  and  _467
REMARK  191  A    between atoms: _466  and  _469
REMARK  192  A    between atoms: _469  and  _470
REMARK  193  A    between atoms: _470  and  _471
REMARK  194  A    between atoms: _474  and  _476
REMARK  195  A    between atoms: _476  and  _477
REMARK  196  A    between atoms: _476  and  _479
REMARK  197  A    between atoms: _479  and  _480
REMARK  198  A    between atoms: _480  and  _481
REMARK  199  A    between atoms: _486  and  _488
REMARK  200  A    between atoms: _488  and  _489
REMARK  201  A    between atoms: _488  and  _491
REMARK  202  A    between atoms: _491  and  _492
REMARK  203  A    between atoms: _492  and  _493
REMARK  204  A    between atoms: _498  and  _500
REMARK  205  A    between atoms: _500  and  _501
REMARK  206  A    between atoms: _500  and  _503
REMARK  207  A    between atoms: _503  and  _504
REMARK  208  A    between atoms: _504  and  _505
REMARK  209  A    between atoms: _508  and  _510
REMARK  210  A    between atoms: _510  and  _511
REMARK  211  A    between atoms: _510  and  _513
REMARK  212  A    between atoms: _513  and  _514
REMARK  213  A    between atoms: _519  and  _521
REMARK  214  A    between atoms: _521  and  _522
REMARK  215  A    between atoms: _521  and  _524
REMARK  216  A    between atoms: _524  and  _525
REMARK  217  A    between atoms: _528  and  _530
REMARK  218  A    between atoms: _530  and  _531
REMARK  219  A    between atoms: _530  and  _533
REMARK  220  A    between atoms: _533  and  _534
REMARK  221  A    between atoms: _537  and  _539
REMARK  222  A    between atoms: _539  and  _540
REMARK  223  A    between atoms: _543  and  _545
REMARK  224  A    between atoms: _545  and  _546
REMARK  225  A    between atoms: _545  and  _548
REMARK  226  A    between atoms: _548  and  _549
REMARK  227  A    between atoms: _552  and  _554
REMARK  228  A    between atoms: _554  and  _555
REMARK  229  A    between atoms: _554  and  _557
REMARK  230  A    between atoms: _557  and  _558
REMARK  231  A    between atoms: _558  and  _559
REMARK  232  A    between atoms: _564  and  _566
REMARK  233  A    between atoms: _566  and  _567
REMARK  234  A    between atoms: _566  and  _569
REMARK  235  A    between atoms: _569  and  _570
REMARK  236  A    between atoms: _573  and  _575
REMARK  237  A    between atoms: _575  and  _576
REMARK  238  A    between atoms: _575  and  _578
REMARK  239  A    between atoms: _578  and  _579
REMARK  240  A    between atoms: _579  and  _580
REMARK  241  A    between atoms: _582  and  _584
REMARK  242  A    between atoms: _584  and  _585
REMARK  243  A    between atoms: _584  and  _587
REMARK  244  A    between atoms: _587  and  _588
REMARK  245  A    between atoms: _591  and  _593
REMARK  246  A    between atoms: _593  and  _594
REMARK  247  A    between atoms: _593  and  _596
REMARK  248  A    between atoms: _596  and  _597
REMARK  249  A    between atoms: _600  and  _602
REMARK  250  A    between atoms: _602  and  _603
REMARK  251  A    between atoms: _602  and  _605
REMARK  252  A    between atoms: _605  and  _606
REMARK  253  A    between atoms: _609  and  _611
REMARK  254  A    between atoms: _611  and  _612
REMARK  255  A    between atoms: _614  and  _616
REMARK  256  A    between atoms: _616  and  _617
REMARK                            x       y       z     vdW  Elec       q    Type
REMARK                         _______ _______ _______ _____ _____    ______ ____
ROOT
ATOM      1  C   MET A   4      24.691  24.531  37.986  0.00  0.00    +0.241 C 
ATOM      2  N   SER A   5      23.404  24.845  38.085  0.00  0.00    -0.295 N 
ATOM      3  H   SER A   5      23.050  25.223  38.987  0.00  0.00    +0.150 HD
ATOM      4  O   MET A   4      25.192  24.056  36.968  0.00  0.00    -0.273 OA
ENDROOT
BRANCH   2   5
ATOM      5  CA  SER A   5      22.466  24.681  36.978  0.00  0.00    +0.178 C 
BRANCH   5   6
ATOM      6  C   SER A   5      22.933  25.499  35.785  0.00  0.00    +0.243 C 
ATOM      7  N   PHE A   6      23.309  26.739  36.062  0.00  0.00    -0.297 N 
ATOM      8  H   PHE A   6      23.249  27.069  37.047  0.00  0.00    +0.150 HD
ATOM      9  O   SER A   5      22.915  25.033  34.645  0.00  0.00    -0.273 OA
BRANCH   7  10
ATOM     10  CA  PHE A   6      23.800  27.656  35.052  0.00  0.00    +0.153 C 
BRANCH  10  11
ATOM     11  C   PHE A   6      24.984  27.029  34.314  0.00  0.00    +0.241 C 
ATOM     12  N   ARG A   7      25.995  26.598  35.058  0.00  0.00    -0.298 N 
ATOM     13  H   ARG A   7      25.945  26.707  36.091  0.00  0.00    +0.150 HD
ATOM     14  O   PHE A   6      24.967  26.914  33.092  0.00  0.00    -0.273 OA
BRANCH  12  15
ATOM     15  CA  ARG A   7      27.174  25.976  34.465  0.00  0.00    +0.137 C 
BRANCH  15  16
ATOM     16  C   ARG A   7      26.781  24.751  33.638  0.00  0.00    +0.227 C 
ATOM     17  O   ARG A   7      27.270  24.555  32.522  0.00  0.00    -0.286 OA
ENDBRANCH  15  16
BRANCH  15  18
ATOM     18  CB  ARG A   7      28.142  25.553  35.559  0.00  0.00    +0.031 C 
BRANCH  18  19
ATOM     19  CG  ARG A   7      29.391  24.899  35.036  0.00  0.00    +0.045 C 
BRANCH  19  20
ATOM     20  CD  ARG A   7      30.244  24.372  36.163  0.00  0.00    +0.174 C 
BRANCH  20  21
ATOM     21  NE  ARG A   7      31.484  23.790  35.663  0.00  0.00    -0.265 N 
ATOM     22  CZ  ARG A   7      31.749  22.487  35.660  0.00  0.00    +0.342 C 
ATOM     23  NH2 ARG A   7      30.865  21.613  36.140  0.00  0.00    -0.292 N 
ATOM     24 HH21 ARG A   7      29.957  21.948  36.522  0.00  0.00    +0.255 HD
ATOM     25 HH22 ARG A   7      31.083  20.596  36.133  0.00  0.00    +0.255 HD
ATOM     26  NH1 ARG A   7      32.884  22.052  35.130  0.00  0.00    -0.292 N 
ATOM     27 HH11 ARG A   7      33.099  21.034  35.124  0.00  0.00    +0.255 HD
ATOM     28 HH12 ARG A   7      33.560  22.728  34.721  0.00  0.00    +0.255 HD
ATOM     29  HE  ARG A   7      32.207  24.435  35.285  0.00  0.00    +0.259 HD
ENDBRANCH  20  21
ENDBRANCH  19  20
ENDBRANCH  18  19
ENDBRANCH  15  18
ENDBRANCH  12  15
ENDBRANCH  10  11
BRANCH  10  30
ATOM     30  CB  PHE A   6      24.216  28.962  35.726  0.00  0.00    +0.055 C 
BRANCH  30  31
ATOM     31  CG  PHE A   6      24.574  30.049  34.772  0.00  0.00    -0.020 A 
ATOM     32  CD2 PHE A   6      25.645  30.886  35.038  0.00  0.00    -0.004 A 
ATOM     33  CE2 PHE A   6      25.971  31.912  34.179  0.00  0.00    -0.000 A 
ATOM     34  CZ  PHE A   6      25.219  32.116  33.025  0.00  0.00    -0.000 A 
ATOM     35  CE1 PHE A   6      24.140  31.281  32.744  0.00  0.00    -0.000 A 
ATOM     36  CD1 PHE A   6      23.826  30.253  33.619  0.00  0.00    -0.004 A 
ENDBRANCH  30  31
ENDBRANCH  10  30
ENDBRANCH   7  10
ENDBRANCH   5   6
BRANCH   5  37
ATOM     37  CB  SER A   5      21.078  25.158  37.396  0.00  0.00    +0.166 C 
BRANCH  37  38
ATOM     38  OG  SER A   5      20.154  25.040  36.333  0.00  0.00    -0.380 OA
ATOM     39  H   SER A   5      20.460  25.590  35.569  0.00  0.00    +0.211 HD
ENDBRANCH  37  38
ENDBRANCH   5  37
ENDBRANCH   2   5
BRANCH   1  40
ATOM     40  CA  MET A   4      25.534  24.772  39.232  0.00  0.00    +0.149 C 
BRANCH  40  42
ATOM     41  C   ALA A   3      25.507  27.192  39.086  0.00  0.00    +0.241 C 
ATOM     42  N   MET A   4      25.250  26.093  39.784  0.00  0.00    -0.297 N 
ATOM     43  H   MET A   4      24.841  26.174  40.737  0.00  0.00    +0.150 HD
ATOM     44  O   ALA A   3      26.005  27.155  37.962  0.00  0.00    -0.273 OA
BRANCH  41  45
ATOM     45  CA  ALA A   3      25.177  28.525  39.740  0.00  0.00    +0.149 C 
ATOM     46  CB  ALA A   3      26.277  28.917  40.691  0.00  0.00    +0.031 C 
BRANCH  45  48
ATOM     47  C   ASN A   2      22.746  28.331  39.772  0.00  0.00    +0.241 C 
ATOM     48  N   ALA A   3      23.898  28.445  40.429  0.00  0.00    -0.297 N 
ATOM     49  H   ALA A   3      23.883  28.478  41.468  0.00  0.00    +0.150 HD
ATOM     50  O   ASN A   2      22.679  28.293  38.536  0.00  0.00    -0.273 OA
BRANCH  47  51
ATOM     51  CA  ASN A   2      21.474  28.231  40.628  0.00  0.00    +0.158 C 
BRANCH  51  53
ATOM     52  C   ASN A   1      22.009  26.144  41.785  0.00  0.00    +0.239 C 
ATOM     53  N   ASN A   2      21.717  27.438  41.825  0.00  0.00    -0.297 N 
ATOM     54  H   ASN A   2      21.659  27.906  42.752  0.00  0.00    +0.150 HD
ATOM     55  O   ASN A   1      22.070  25.502  40.736  0.00  0.00    -0.274 OA
BRANCH  52  56
ATOM     56  CA  ASN A   1      22.260  25.462  43.124  0.00  0.00    +0.154 C 
BRANCH  56  57
ATOM     57  N   ASN A   1      23.080  26.261  44.040  0.00  0.00    -0.238 NA
ATOM     58  H   ASN A   1      22.647  26.604  44.921  0.00  0.00    +0.142 HD
ENDBRANCH  56  57
BRANCH  56  59
ATOM     59  CB  ASN A   1      20.918  25.109  43.763  0.00  0.00    +0.111 C 
BRANCH  59  60
ATOM     60  CG  ASN A   1      21.017  23.940  44.718  0.00  0.00    +0.221 C 
ATOM     61  ND2 ASN A   1      20.199  23.962  45.762  0.00  0.00    -0.329 N 
ATOM     62 HD21 ASN A   1      20.209  23.180  46.447  0.00  0.00    +0.145 HD
ATOM     63 HD22 ASN A   1      19.548  24.762  45.896  0.00  0.00    +0.145 HD
ATOM     64  OD1 ASN A   1      21.807  23.017  44.514  0.00  0.00    -0.275 OA
ENDBRANCH  59  60
ENDBRANCH  56  59
ENDBRANCH  52  56
ENDBRANCH  51  53
BRANCH  51  65
ATOM     65  CB  ASN A   2      20.984  29.624  41.024  0.00  0.00    +0.114 C 
BRANCH  65  66
ATOM     66  CG  ASN A   2      20.792  30.538  39.836  0.00  0.00    +0.222 C 
ATOM     67  OD1 ASN A   2      21.626  31.403  39.574  0.00  0.00    -0.275 OA
ATOM     68  ND2 ASN A   2      19.688  30.365  39.116  0.00  0.00    -0.329 N 
ATOM     69 HD21 ASN A   2      19.010  29.620  39.375  0.00  0.00    +0.145 HD
ATOM     70 HD22 ASN A   2      19.502  30.975  38.294  0.00  0.00    +0.145 HD
ENDBRANCH  65  66
ENDBRANCH  51  65
ENDBRANCH  47  51
ENDBRANCH  45  48
ENDBRANCH  41  45
ENDBRANCH  40  42
BRANCH  40  71
ATOM     71  CB  MET A   4      25.262  23.669  40.267  0.00  0.00    +0.041 C 
BRANCH  71  72
ATOM     72  CG  MET A   4      26.202  23.675  41.470  0.00  0.00    +0.060 C 
BRANCH  72  73
ATOM     73  SD  MET A   4      26.223  22.104  42.381  0.00  0.00    -0.139 S 
ATOM     74  CE  MET A   4      24.726  22.248  43.356  0.00  0.00    +0.069 C 
ENDBRANCH  72  73
ENDBRANCH  71  72
ENDBRANCH  40  71
ENDBRANCH   1  40
TORSDOF 29
REMARK  Name = ../refined-set-2016/1ork/1ork_pocket.pdb
REMARK  256 active torsions:
REMARK  status: ('A' for Active; 'I' for Inactive)
REMARK    1  A    between atoms: _1  and  _3
REMARK    2  A    between atoms: _3  and  _4
REMARK    3  A    between atoms: _7  and  _9
REMARK    4  A    between atoms: _9  and  _10
REMARK    5  A    between atoms: _9  and  _12
REMARK    6  A    between atoms: _15  and  _17
REMARK    7  A    between atoms: _17  and  _18
REMARK    8  A    between atoms: _17  and  _20
REMARK    9  A    between atoms: _20  and  _21
REMARK   10  A    between atoms: _24  and  _26
REMARK   11  A    between atoms: _26  and  _27
REMARK   12  A    between atoms: _30  and  _32
REMARK   13  A    between atoms: _32  and  _33
REMARK   14  A    between atoms: _32  and  _35
REMARK   15  A    between atoms: _35  and  _36
REMARK   16  A    between atoms: _41  and  _43
REMARK   17  A    between atoms: _43  and  _44
REMARK   18  A    between atoms: _43  and  _46
REMARK   19  A    between atoms: _46  and  _47
REMARK   20  A    between atoms: _50  and  _52
REMARK   21  A    between atoms: _52  and  _53
REMARK   22  A    between atoms: _52  and  _55
REMARK   23  A    between atoms: _55  and  _56
REMARK   24  A    between atoms: _61  and  _62
REMARK   25  A    between atoms: _64  and  _66
REMARK   26  A    between atoms: _66  and  _67
REMARK   27  A    between atoms: _66  and  _69
REMARK   28  A    between atoms: _69  and  _70
REMARK   29  A    between atoms: _72  and  _74
REMARK   30  A    between atoms: _74  and  _75
REMARK   31  A    between atoms: _74  and  _77
REMARK   32  A    between atoms: _77  and  _78
REMARK   33  A    between atoms: _81  and  _83
REMARK   34  A    between atoms: _83  and  _84
REMARK   35  A    between atoms: _83  and  _86
REMARK   36  A    between atoms: _86  and  _87
REMARK   37  A    between atoms: _93  and  _95
REMARK   38  A    between atoms: _95  and  _96
REMARK   39  A    between atoms: _95  and  _98
REMARK   40  A    between atoms: _98  and  _99
REMARK   41  A    between atoms: _102  and  _104
REMARK   42  A    between atoms: _104  and  _105
REMARK   43  A    between atoms: _104  and  _107
REMARK   44  A    between atoms: _107  and  _108
REMARK   45  A    between atoms: _113  and  _115
REMARK   46  A    between atoms: _115  and  _116
REMARK   47  A    between atoms: _115  and  _118
REMARK   48  A    between atoms: _118  and  _119
REMARK   49  A    between atoms: _124  and  _126
REMARK   50  A    between atoms: _126  and  _127
REMARK   51  A    between atoms: _130  and  _132
REMARK   52  A    between atoms: _132  and  _133
REMARK   53  A    between atoms: _132  and  _135
REMARK   54  A    between atoms: _135  and  _136
REMARK   55  A    between atoms: _136  and  _137
REMARK   56  A    between atoms: _139  and  _141
REMARK   57  A    between atoms: _141  and  _142
REMARK   58  A    between atoms: _141  and  _144
REMARK   59  A    between atoms: _144  and  _145
REMARK   60  A    between atoms: _147  and  _149
REMARK   61  A    between atoms: _149  and  _150
REMARK   62  A    between atoms: _149  and  _152
REMARK   63  A    between atoms: _152  and  _153
REMARK   64  A    between atoms: _159  and  _161
REMARK   65  A    between atoms: _161  and  _162
REMARK   66  A    between atoms: _161  and  _164
REMARK   67  A    between atoms: _164  and  _165
REMARK   68  A    between atoms: _165  and  _166
REMARK   69  A    between atoms: _166  and  _167
REMARK   70  A    between atoms: _176  and  _178
REMARK   71  A    between atoms: _178  and  _179
REMARK   72  A    between atoms: _178  and  _181
REMARK   73  A    between atoms: _181  and  _182
REMARK   74  A    between atoms: _185  and  _187
REMARK   75  A    between atoms: _187  and  _188
REMARK   76  A    between atoms: _187  and  _190
REMARK   77  A    between atoms: _190  and  _191
REMARK   78  A    between atoms: _196  and  _198
REMARK   79  A    between atoms: _198  and  _199
REMARK   80  A    between atoms: _198  and  _201
REMARK   81  A    between atoms: _201  and  _202
REMARK   82  A    between atoms: _205  and  _207
REMARK   83  A    between atoms: _207  and  _208
REMARK   84  A    between atoms: _210  and  _212
REMARK   85  A    between atoms: _212  and  _213
REMARK   86  A    between atoms: _212  and  _215
REMARK   87  A    between atoms: _215  and  _216
REMARK   88  A    between atoms: _219  and  _221
REMARK   89  A    between atoms: _221  and  _222
REMARK   90  A    between atoms: _221  and  _224
REMARK   91  A    between atoms: _224  and  _225
REMARK   92  A    between atoms: _225  and  _226
REMARK   93  A    between atoms: _226  and  _227
REMARK   94  A    between atoms: _237  and  _238
REMARK   95  A    between atoms: _243  and  _245
REMARK   96  A    between atoms: _245  and  _246
REMARK   97  A    between atoms: _245  and  _248
REMARK   98  A    between atoms: _248  and  _249
REMARK   99  A    between atoms: _252  and  _254
REMARK  100  A    between atoms: _254  and  _255
REMARK  101  A    between atoms: _254  and  _257
REMARK  102  A    between atoms: _257  and  _258
REMARK  103  A    between atoms: _258  and  _259
REMARK  104  A    between atoms: _259  and  _260
REMARK  105  A    between atoms: _260  and  _261
REMARK  106  A    between atoms: _265  and  _267
REMARK  107  A    between atoms: _267  and  _268
REMARK  108  A    between atoms: _267  and  _270
REMARK  109  A    between atoms: _270  and  _271
REMARK  110  A    between atoms: _271  and  _272
REMARK  111  A    between atoms: _277  and  _279
REMARK  112  A    between atoms: _279  and  _280
REMARK  113  A    between atoms: _279  and  _282
REMARK  114  A    between atoms: _282  and  _283
REMARK  115  A    between atoms: _288  and  _289
REMARK  116  A    between atoms: _291  and  _293
REMARK  117  A    between atoms: _293  and  _294
REMARK  118  A    between atoms: _293  and  _296
REMARK  119  A    between atoms: _296  and  _297
REMARK  120  A    between atoms: _300  and  _302
REMARK  121  A    between atoms: _302  and  _303
REMARK  122  A    between atoms: _302  and  _305
REMARK  123  A    between atoms: _305  and  _306
REMARK  124  A    between atoms: _309  and  _311
REMARK  125  A    between atoms: _311  and  _312
REMARK  126  A    between atoms: _311  and  _314
REMARK  127  A    between atoms: _317  and  _319
REMARK  128  A    between atoms: _319  and  _320
REMARK  129  A    between atoms: _319  and  _322
REMARK  130  A    between atoms: _322  and  _323
REMARK  131  A    between atoms: _323  and  _324
REMARK  132  A    between atoms: _327  and  _329
REMARK  133  A    between atoms: _329  and  _330
REMARK  134  A    between atoms: _329  and  _332
REMARK  135  A    between atoms: _332  and  _333
REMARK  136  A    between atoms: _333  and  _334
REMARK  137  A    between atoms: _339  and  _341
REMARK  138  A    between atoms: _341  and  _342
REMARK  139  A    between atoms: _341  and  _344
REMARK  140  A    between atoms: _344  and  _345
REMARK  141  A    between atoms: _348  and  _350
REMARK  142  A    between atoms: _350  and  _351
REMARK  143  A    between atoms: _353  and  _355
REMARK  144  A    between atoms: _355  and  _356
REMARK  145  A    between atoms: _355  and  _358
REMARK  146  A    between atoms: _358  and  _359
REMARK  147  A    between atoms: _362  and  _364
REMARK  148  A    between atoms: _364  and  _365
REMARK  149  A    between atoms: _368  and  _370
REMARK  150  A    between atoms: _370  and  _371
REMARK  151  A    between atoms: _370  and  _373
REMARK  152  A    between atoms: _373  and  _374
REMARK  153  A    between atoms: _377  and  _379
REMARK  154  A    between atoms: _379  and  _380
REMARK  155  A    between atoms: _379  and  _382
REMARK  156  A    between atoms: _382  and  _383
REMARK  157  A    between atoms: _385  and  _387
REMARK  158  A    between atoms: _387  and  _388
REMARK  159  A    between atoms: _391  and  _393
REMARK  160  A    between atoms: _393  and  _394
REMARK  161  A    between atoms: _393  and  _396
REMARK  162  A    between atoms: _399  and  _401
REMARK  163  A    between atoms: _401  and  _402
REMARK  164  A    between atoms: _401  and  _404
REMARK  165  A    between atoms: _404  and  _405
REMARK  166  A    between atoms: _407  and  _409
REMARK  167  A    between atoms: _409  and  _410
REMARK  168  A    between atoms: _409  and  _412
REMARK  169  A    between atoms: _412  and  _413
REMARK  170  A    between atoms: _418  and  _420
REMARK  171  A    between atoms: _420  and  _421
REMARK  172  A    between atoms: _420  and  _423
REMARK  173  A    between atoms: _423  and  _424
REMARK  174  A    between atoms: _427  and  _429
REMARK  175  A    between atoms: _429  and  _430
REMARK  176  A    between atoms: _429  and  _432
REMARK  177  A    between atoms: _432  and  _433
REMARK  178  A    between atoms: _436  and  _438
REMARK  179  A    between atoms: _438  and  _439
REMARK  180  A    between atoms: _441  and  _443
REMARK  181  A    between atoms: _443  and  _444
REMARK  182  A    between atoms: _447  and  _449
REMARK  183  A    between atoms: _449  and  _450
REMARK  184  A    between atoms: _449  and  _452
REMARK  185  A    between atoms: _455  and  _457
REMARK  186  A    between atoms: _457  and  _458
REMARK  187  A    between atoms: _457  and  _460
REMARK  188  A    between atoms: _460  and  _461
REMARK  189  A    between atoms: _464  and  _466
REMARK  190  A    between atoms: _466  and  _467
REMARK  191  A    between atoms: _466  and  _469
REMARK  192  A    between atoms: _469  and  _470
REMARK  193  A    between atoms: _470  and  _471
REMARK  194  A    between atoms: _474  and  _476
REMARK  195  A    between atoms: _476  and  _477
REMARK  196  A    between atoms: _476  and  _479
REMARK  197  A    between atoms: _479  and  _480
REMARK  198  A    between atoms: _480  and  _481
REMARK  199  A    between atoms: _486  and  _488
REMARK  200  A    between atoms: _488  and  _489
REMARK  201  A    between atoms: _488  and  _491
REMARK  202  A    between atoms: _491  and  _492
REMARK  203  A    between atoms: _492  and  _493
REMARK  204  A    between atoms: _498  and  _500
REMARK  205  A    between atoms: _500  and  _501
REMARK  206  A    between atoms: _500  and  _503
REMARK  207  A    between atoms: _503  and  _504
REMARK  208  A    between atoms: _504  and  _505
REMARK  209  A    between atoms: _508  and  _510
REMARK  210  A    between atoms: _510  and  _511
REMARK  211  A    between atoms: _510  and  _513
REMARK  212  A    between atoms: _513  and  _514
REMARK  213  A    between atoms: _519  and  _521
REMARK  214  A    between atoms: _521  and  _522
REMARK  215  A    between atoms: _521  and  _524
REMARK  216  A    between atoms: _524  and  _525
REMARK  217  A    between atoms: _528  and  _530
REMARK  218  A    between atoms: _530  and  _531
REMARK  219  A    between atoms: _530  and  _533
REMARK  220  A    between atoms: _533  and  _534
REMARK  221  A    between atoms: _537  and  _539
REMARK  222  A    between atoms: _539  and  _540
REMARK  223  A    between atoms: _543  and  _545
REMARK  224  A    between atoms: _545  and  _546
REMARK  225  A    between atoms: _545  and  _548
REMARK  226  A    between atoms: _548  and  _549
REMARK  227  A    between atoms: _552  and  _554
REMARK  228  A    between atoms: _554  and  _555
REMARK  229  A    between atoms: _554  and  _557
REMARK  230  A    between atoms: _557  and  _558
REMARK  231  A    between atoms: _558  and  _559
REMARK  232  A    between atoms: _564  and  _566
REMARK  233  A    between atoms: _566  and  _567
REMARK  234  A    between atoms: _566  and  _569
REMARK  235  A    between atoms: _569  and  _570
REMARK  236  A    between atoms: _573  and  _575
REMARK  237  A    between atoms: _575  and  _576
REMARK  238  A    between atoms: _575  and  _578
REMARK  239  A    between atoms: _578  and  _579
REMARK  240  A    between atoms: _579  and  _580
REMARK  241  A    between atoms: _582  and  _584
REMARK  242  A    between atoms: _584  and  _585
REMARK  243  A    between atoms: _584  and  _587
REMARK  244  A    between atoms: _587  and  _588
REMARK  245  A    between atoms: _591  and  _593
REMARK  246  A    between atoms: _593  and  _594
REMARK  247  A    between atoms: _593  and  _596
REMARK  248  A    between atoms: _596  and  _597
REMARK  249  A    between atoms: _600  and  _602
REMARK  250  A    between atoms: _602  and  _603
REMARK  251  A    between atoms: _602  and  _605
REMARK  252  A    between atoms: _605  and  _606
REMARK  253  A    between atoms: _609  and  _611
REMARK  254  A    between atoms: _611  and  _612
REMARK  255  A    between atoms: _614  and  _616
REMARK  256  A    between atoms: _616  and  _617
REMARK                            x       y       z     vdW  Elec       q    Type
REMARK                         _______ _______ _______ _____ _____    ______ ____
ROOT
ATOM      1  CA  LEU A   1      26.251  26.386  29.572  0.00  0.00    +0.133 C 
ENDROOT
BRANCH   1   2
ATOM      2  N   LEU A   1      25.204  25.795  30.396  0.00  0.00    -0.239 NA
ATOM      3  H   LEU A   1      25.169  26.024  31.410  0.00  0.00    +0.142 HD
ENDBRANCH   1   2
BRANCH   1   4
ATOM      4  C   LEU A   1      27.146  25.332  28.894  0.00  0.00    +0.224 C 
ATOM      5  O   LEU A   1      27.749  25.602  27.849  0.00  0.00    -0.287 OA
ENDBRANCH   1   4
BRANCH   1   6
ATOM      6  CB  LEU A   1      27.104  27.320  30.431  0.00  0.00    +0.025 C 
BRANCH   6   7
ATOM      7  CG  LEU A   1      27.011  28.824  30.197  0.00  0.00    +0.002 C 
ATOM      8  CD2 LEU A   1      27.564  29.524  31.404  0.00  0.00    +0.000 C 
ATOM      9  CD1 LEU A   1      25.594  29.271  29.908  0.00  0.00    +0.000 C 
ENDBRANCH   6   7
ENDBRANCH   1   6
TORSDOF 4
REMARK  Name = ../refined-set-2016/1ork/1ork_pocket.pdb
REMARK  256 active torsions:
REMARK  status: ('A' for Active; 'I' for Inactive)
REMARK    1  A    between atoms: _1  and  _3
REMARK    2  A    between atoms: _3  and  _4
REMARK    3  A    between atoms: _7  and  _9
REMARK    4  A    between atoms: _9  and  _10
REMARK    5  A    between atoms: _9  and  _12
REMARK    6  A    between atoms: _15  and  _17
REMARK    7  A    between atoms: _17  and  _18
REMARK    8  A    between atoms: _17  and  _20
REMARK    9  A    between atoms: _20  and  _21
REMARK   10  A    between atoms: _24  and  _26
REMARK   11  A    between atoms: _26  and  _27
REMARK   12  A    between atoms: _30  and  _32
REMARK   13  A    between atoms: _32  and  _33
REMARK   14  A    between atoms: _32  and  _35
REMARK   15  A    between atoms: _35  and  _36
REMARK   16  A    between atoms: _41  and  _43
REMARK   17  A    between atoms: _43  and  _44
REMARK   18  A    between atoms: _43  and  _46
REMARK   19  A    between atoms: _46  and  _47
REMARK   20  A    between atoms: _50  and  _52
REMARK   21  A    between atoms: _52  and  _53
REMARK   22  A    between atoms: _52  and  _55
REMARK   23  A    between atoms: _55  and  _56
REMARK   24  A    between atoms: _61  and  _62
REMARK   25  A    between atoms: _64  and  _66
REMARK   26  A    between atoms: _66  and  _67
REMARK   27  A    between atoms: _66  and  _69
REMARK   28  A    between atoms: _69  and  _70
REMARK   29  A    between atoms: _72  and  _74
REMARK   30  A    between atoms: _74  and  _75
REMARK   31  A    between atoms: _74  and  _77
REMARK   32  A    between atoms: _77  and  _78
REMARK   33  A    between atoms: _81  and  _83
REMARK   34  A    between atoms: _83  and  _84
REMARK   35  A    between atoms: _83  and  _86
REMARK   36  A    between atoms: _86  and  _87
REMARK   37  A    between atoms: _93  and  _95
REMARK   38  A    between atoms: _95  and  _96
REMARK   39  A    between atoms: _95  and  _98
REMARK   40  A    between atoms: _98  and  _99
REMARK   41  A    between atoms: _102  and  _104
REMARK   42  A    between atoms: _104  and  _105
REMARK   43  A    between atoms: _104  and  _107
REMARK   44  A    between atoms: _107  and  _108
REMARK   45  A    between atoms: _113  and  _115
REMARK   46  A    between atoms: _115  and  _116
REMARK   47  A    between atoms: _115  and  _118
REMARK   48  A    between atoms: _118  and  _119
REMARK   49  A    between atoms: _124  and  _126
REMARK   50  A    between atoms: _126  and  _127
REMARK   51  A    between atoms: _130  and  _132
REMARK   52  A    between atoms: _132  and  _133
REMARK   53  A    between atoms: _132  and  _135
REMARK   54  A    between atoms: _135  and  _136
REMARK   55  A    between atoms: _136  and  _137
REMARK   56  A    between atoms: _139  and  _141
REMARK   57  A    between atoms: _141  and  _142
REMARK   58  A    between atoms: _141  and  _144
REMARK   59  A    between atoms: _144  and  _145
REMARK   60  A    between atoms: _147  and  _149
REMARK   61  A    between atoms: _149  and  _150
REMARK   62  A    between atoms: _149  and  _152
REMARK   63  A    between atoms: _152  and  _153
REMARK   64  A    between atoms: _159  and  _161
REMARK   65  A    between atoms: _161  and  _162
REMARK   66  A    between atoms: _161  and  _164
REMARK   67  A    between atoms: _164  and  _165
REMARK   68  A    between atoms: _165  and  _166
REMARK   69  A    between atoms: _166  and  _167
REMARK   70  A    between atoms: _176  and  _178
REMARK   71  A    between atoms: _178  and  _179
REMARK   72  A    between atoms: _178  and  _181
REMARK   73  A    between atoms: _181  and  _182
REMARK   74  A    between atoms: _185  and  _187
REMARK   75  A    between atoms: _187  and  _188
REMARK   76  A    between atoms: _187  and  _190
REMARK   77  A    between atoms: _190  and  _191
REMARK   78  A    between atoms: _196  and  _198
REMARK   79  A    between atoms: _198  and  _199
REMARK   80  A    between atoms: _198  and  _201
REMARK   81  A    between atoms: _201  and  _202
REMARK   82  A    between atoms: _205  and  _207
REMARK   83  A    between atoms: _207  and  _208
REMARK   84  A    between atoms: _210  and  _212
REMARK   85  A    between atoms: _212  and  _213
REMARK   86  A    between atoms: _212  and  _215
REMARK   87  A    between atoms: _215  and  _216
REMARK   88  A    between atoms: _219  and  _221
REMARK   89  A    between atoms: _221  and  _222
REMARK   90  A    between atoms: _221  and  _224
REMARK   91  A    between atoms: _224  and  _225
REMARK   92  A    between atoms: _225  and  _226
REMARK   93  A    between atoms: _226  and  _227
REMARK   94  A    between atoms: _237  and  _238
REMARK   95  A    between atoms: _243  and  _245
REMARK   96  A    between atoms: _245  and  _246
REMARK   97  A    between atoms: _245  and  _248
REMARK   98  A    between atoms: _248  and  _249
REMARK   99  A    between atoms: _252  and  _254
REMARK  100  A    between atoms: _254  and  _255
REMARK  101  A    between atoms: _254  and  _257
REMARK  102  A    between atoms: _257  and  _258
REMARK  103  A    between atoms: _258  and  _259
REMARK  104  A    between atoms: _259  and  _260
REMARK  105  A    between atoms: _260  and  _261
REMARK  106  A    between atoms: _265  and  _267
REMARK  107  A    between atoms: _267  and  _268
REMARK  108  A    between atoms: _267  and  _270
REMARK  109  A    between atoms: _270  and  _271
REMARK  110  A    between atoms: _271  and  _272
REMARK  111  A    between atoms: _277  and  _279
REMARK  112  A    between atoms: _279  and  _280
REMARK  113  A    between atoms: _279  and  _282
REMARK  114  A    between atoms: _282  and  _283
REMARK  115  A    between atoms: _288  and  _289
REMARK  116  A    between atoms: _291  and  _293
REMARK  117  A    between atoms: _293  and  _294
REMARK  118  A    between atoms: _293  and  _296
REMARK  119  A    between atoms: _296  and  _297
REMARK  120  A    between atoms: _300  and  _302
REMARK  121  A    between atoms: _302  and  _303
REMARK  122  A    between atoms: _302  and  _305
REMARK  123  A    between atoms: _305  and  _306
REMARK  124  A    between atoms: _309  and  _311
REMARK  125  A    between atoms: _311  and  _312
REMARK  126  A    between atoms: _311  and  _314
REMARK  127  A    between atoms: _317  and  _319
REMARK  128  A    between atoms: _319  and  _320
REMARK  129  A    between atoms: _319  and  _322
REMARK  130  A    between atoms: _322  and  _323
REMARK  131  A    between atoms: _323  and  _324
REMARK  132  A    between atoms: _327  and  _329
REMARK  133  A    between atoms: _329  and  _330
REMARK  134  A    between atoms: _329  and  _332
REMARK  135  A    between atoms: _332  and  _333
REMARK  136  A    between atoms: _333  and  _334
REMARK  137  A    between atoms: _339  and  _341
REMARK  138  A    between atoms: _341  and  _342
REMARK  139  A    between atoms: _341  and  _344
REMARK  140  A    between atoms: _344  and  _345
REMARK  141  A    between atoms: _348  and  _350
REMARK  142  A    between atoms: _350  and  _351
REMARK  143  A    between atoms: _353  and  _355
REMARK  144  A    between atoms: _355  and  _356
REMARK  145  A    between atoms: _355  and  _358
REMARK  146  A    between atoms: _358  and  _359
REMARK  147  A    between atoms: _362  and  _364
REMARK  148  A    between atoms: _364  and  _365
REMARK  149  A    between atoms: _368  and  _370
REMARK  150  A    between atoms: _370  and  _371
REMARK  151  A    between atoms: _370  and  _373
REMARK  152  A    between atoms: _373  and  _374
REMARK  153  A    between atoms: _377  and  _379
REMARK  154  A    between atoms: _379  and  _380
REMARK  155  A    between atoms: _379  and  _382
REMARK  156  A    between atoms: _382  and  _383
REMARK  157  A    between atoms: _385  and  _387
REMARK  158  A    between atoms: _387  and  _388
REMARK  159  A    between atoms: _391  and  _393
REMARK  160  A    between atoms: _393  and  _394
REMARK  161  A    between atoms: _393  and  _396
REMARK  162  A    between atoms: _399  and  _401
REMARK  163  A    between atoms: _401  and  _402
REMARK  164  A    between atoms: _401  and  _404
REMARK  165  A    between atoms: _404  and  _405
REMARK  166  A    between atoms: _407  and  _409
REMARK  167  A    between atoms: _409  and  _410
REMARK  168  A    between atoms: _409  and  _412
REMARK  169  A    between atoms: _412  and  _413
REMARK  170  A    between atoms: _418  and  _420
REMARK  171  A    between atoms: _420  and  _421
REMARK  172  A    between atoms: _420  and  _423
REMARK  173  A    between atoms: _423  and  _424
REMARK  174  A    between atoms: _427  and  _429
REMARK  175  A    between atoms: _429  and  _430
REMARK  176  A    between atoms: _429  and  _432
REMARK  177  A    between atoms: _432  and  _433
REMARK  178  A    between atoms: _436  and  _438
REMARK  179  A    between atoms: _438  and  _439
REMARK  180  A    between atoms: _441  and  _443
REMARK  181  A    between atoms: _443  and  _444
REMARK  182  A    between atoms: _447  and  _449
REMARK  183  A    between atoms: _449  and  _450
REMARK  184  A    between atoms: _449  and  _452
REMARK  185  A    between atoms: _455  and  _457
REMARK  186  A    between atoms: _457  and  _458
REMARK  187  A    between atoms: _457  and  _460
REMARK  188  A    between atoms: _460  and  _461
REMARK  189  A    between atoms: _464  and  _466
REMARK  190  A    between atoms: _466  and  _467
REMARK  191  A    between atoms: _466  and  _469
REMARK  192  A    between atoms: _469  and  _470
REMARK  193  A    between atoms: _470  and  _471
REMARK  194  A    between atoms: _474  and  _476
REMARK  195  A    between atoms: _476  and  _477
REMARK  196  A    between atoms: _476  and  _479
REMARK  197  A    between atoms: _479  and  _480
REMARK  198  A    between atoms: _480  and  _481
REMARK  199  A    between atoms: _486  and  _488
REMARK  200  A    between atoms: _488  and  _489
REMARK  201  A    between atoms: _488  and  _491
REMARK  202  A    between atoms: _491  and  _492
REMARK  203  A    between atoms: _492  and  _493
REMARK  204  A    between atoms: _498  and  _500
REMARK  205  A    between atoms: _500  and  _501
REMARK  206  A    between atoms: _500  and  _503
REMARK  207  A    between atoms: _503  and  _504
REMARK  208  A    between atoms: _504  and  _505
REMARK  209  A    between atoms: _508  and  _510
REMARK  210  A    between atoms: _510  and  _511
REMARK  211  A    between atoms: _510  and  _513
REMARK  212  A    between atoms: _513  and  _514
REMARK  213  A    between atoms: _519  and  _521
REMARK  214  A    between atoms: _521  and  _522
REMARK  215  A    between atoms: _521  and  _524
REMARK  216  A    between atoms: _524  and  _525
REMARK  217  A    between atoms: _528  and  _530
REMARK  218  A    between atoms: _530  and  _531
REMARK  219  A    between atoms: _530  and  _533
REMARK  220  A    between atoms: _533  and  _534
REMARK  221  A    between atoms: _537  and  _539
REMARK  222  A    between atoms: _539  and  _540
REMARK  223  A    between atoms: _543  and  _545
REMARK  224  A    between atoms: _545  and  _546
REMARK  225  A    between atoms: _545  and  _548
REMARK  226  A    between atoms: _548  and  _549
REMARK  227  A    between atoms: _552  and  _554
REMARK  228  A    between atoms: _554  and  _555
REMARK  229  A    between atoms: _554  and  _557
REMARK  230  A    between atoms: _557  and  _558
REMARK  231  A    between atoms: _558  and  _559
REMARK  232  A    between atoms: _564  and  _566
REMARK  233  A    between atoms: _566  and  _567
REMARK  234  A    between atoms: _566  and  _569
REMARK  235  A    between atoms: _569  and  _570
REMARK  236  A    between atoms: _573  and  _575
REMARK  237  A    between atoms: _575  and  _576
REMARK  238  A    between atoms: _575  and  _578
REMARK  239  A    between atoms: _578  and  _579
REMARK  240  A    between atoms: _579  and  _580
REMARK  241  A    between atoms: _582  and  _584
REMARK  242  A    between atoms: _584  and  _585
REMARK  243  A    between atoms: _584  and  _587
REMARK  244  A    between atoms: _587  and  _588
REMARK  245  A    between atoms: _591  and  _593
REMARK  246  A    between atoms: _593  and  _594
REMARK  247  A    between atoms: _593  and  _596
REMARK  248  A    between atoms: _596  and  _597
REMARK  249  A    between atoms: _600  and  _602
REMARK  250  A    between atoms: _602  and  _603
REMARK  251  A    between atoms: _602  and  _605
REMARK  252  A    between atoms: _605  and  _606
REMARK  253  A    between atoms: _609  and  _611
REMARK  254  A    between atoms: _611  and  _612
REMARK  255  A    between atoms: _614  and  _616
REMARK  256  A    between atoms: _616  and  _617
REMARK                            x       y       z     vdW  Elec       q    Type
REMARK                         _______ _______ _______ _____ _____    ______ ____
ROOT
ATOM      1  C   THR A   4      22.761  39.494  27.679  0.00  0.00    +0.243 C 
ATOM      2  O   THR A   4      23.493  39.455  28.669  0.00  0.00    -0.273 OA
ATOM      3  N   ARG A   5      21.555  40.055  27.689  0.00  0.00    -0.297 N 
ATOM      4  H   ARG A   5      21.023  40.102  26.797  0.00  0.00    +0.150 HD
ENDROOT
BRANCH   3   5
ATOM      5  CA  ARG A   5      20.942  40.609  28.896  0.00  0.00    +0.149 C 
BRANCH   5   6
ATOM      6  C   ARG A   5      19.617  39.887  29.053  0.00  0.00    +0.244 C 
ATOM      7  N   PRO A   6      18.989  39.990  30.231  0.00  0.00    -0.272 N 
ATOM      8  CD  PRO A   6      19.407  40.652  31.477  0.00  0.00    +0.094 C 
ATOM      9  CG  PRO A   6      18.511  39.995  32.499  0.00  0.00    +0.024 C 
ATOM     10  CB  PRO A   6      17.236  39.854  31.754  0.00  0.00    +0.031 C 
ATOM     11  CA  PRO A   6      17.714  39.308  30.417  0.00  0.00    +0.152 C 
ATOM     12  O   ARG A   5      19.167  39.214  28.128  0.00  0.00    -0.273 OA
BRANCH  11  13
ATOM     13  C   PRO A   6      16.733  39.616  29.309  0.00  0.00    +0.241 C 
ATOM     14  O   PRO A   6      16.556  40.768  28.910  0.00  0.00    -0.273 OA
ATOM     15  N   ASP A   7      16.192  38.551  28.743  0.00  0.00    -0.298 N 
ATOM     16  H   ASP A   7      16.489  37.608  29.067  0.00  0.00    +0.150 HD
BRANCH  15  17
ATOM     17  CA  ASP A   7      15.203  38.644  27.691  0.00  0.00    +0.148 C 
BRANCH  17  18
ATOM     18  C   ASP A   7      13.853  38.799  28.394  0.00  0.00    +0.227 C 
ATOM     19  O   ASP A   7      13.699  38.379  29.542  0.00  0.00    -0.286 OA
ENDBRANCH  17  18
BRANCH  17  20
ATOM     20  CB  ASP A   7      15.224  37.351  26.877  0.00  0.00    +0.142 C 
BRANCH  20  21
ATOM     21  CG  ASP A   7      14.150  37.313  25.807  0.00  0.00    +0.367 C 
ATOM     22  OD2 ASP A   7      13.103  36.669  26.030  0.00  0.00    -0.246 OA
ATOM     23  OD1 ASP A   7      14.352  37.939  24.746  0.00  0.00    -0.246 OA
ENDBRANCH  20  21
ENDBRANCH  17  20
ENDBRANCH  15  17
ENDBRANCH  11  13
ENDBRANCH   5   6
BRANCH   5  24
ATOM     24  CB  ARG A   5      20.692  42.116  28.770  0.00  0.00    +0.033 C 
BRANCH  24  25
ATOM     25  CG  ARG A   5      21.682  42.980  29.563  0.00  0.00    +0.045 C 
BRANCH  25  26
ATOM     26  CD  ARG A   5      21.122  44.379  29.860  0.00  0.00    +0.174 C 
BRANCH  26  27
ATOM     27  NE  ARG A   5      22.178  45.371  30.078  0.00  0.00    -0.265 N 
ATOM     28  HE  ARG A   5      23.142  45.021  30.252  0.00  0.00    +0.259 HD
ATOM     29  CZ  ARG A   5      21.989  46.690  30.069  0.00  0.00    +0.342 C 
ATOM     30  NH2 ARG A   5      23.017  47.508  30.267  0.00  0.00    -0.292 N 
ATOM     31 HH21 ARG A   5      23.968  47.119  30.429  0.00  0.00    +0.255 HD
ATOM     32 HH22 ARG A   5      22.871  48.538  30.260  0.00  0.00    +0.255 HD
ATOM     33  NH1 ARG A   5      20.774  47.195  29.878  0.00  0.00    -0.292 N 
ATOM     34 HH11 ARG A   5      20.634  48.226  29.872  0.00  0.00    +0.255 HD
ATOM     35 HH12 ARG A   5      19.963  46.559  29.734  0.00  0.00    +0.255 HD
ENDBRANCH  26  27
ENDBRANCH  25  26
ENDBRANCH  24  25
ENDBRANCH   5  24
ENDBRANCH   3   5
BRANCH   1  36
ATOM     36  CA  THR A   4      23.222  38.918  26.340  0.00  0.00    +0.176 C 
BRANCH  36  38
ATOM     37  C   GLY A   3      25.419  39.886  26.006  0.00  0.00    +0.243 C 
ATOM     38  N   THR A   4      24.669  38.811  26.231  0.00  0.00    -0.295 N 
ATOM     39  H   THR A   4      25.123  37.881  26.330  0.00  0.00    +0.150 HD
ATOM     40  O   GLY A   3      24.946  41.018  25.912  0.00  0.00    -0.273 OA
BRANCH  37  41
ATOM     41  CA  GLY A   3      26.919  39.697  25.897  0.00  0.00    +0.176 C 
BRANCH  41  43
ATOM     42  C   LEU A   2      27.518  37.365  25.654  0.00  0.00    +0.241 C 
ATOM     43  N   GLY A   3      27.450  38.451  26.417  0.00  0.00    -0.295 N 
ATOM     44  H   GLY A   3      27.782  38.407  27.401  0.00  0.00    +0.150 HD
ATOM     45  O   LEU A   2      27.152  37.343  24.475  0.00  0.00    -0.273 OA
BRANCH  42  46
ATOM     46  CA  LEU A   2      28.126  36.137  26.319  0.00  0.00    +0.149 C 
BRANCH  46  49
ATOM     47  C   HIS A   1      26.050  34.887  26.380  0.00  0.00    +0.239 C 
ATOM     48  O   HIS A   1      25.421  35.871  26.765  0.00  0.00    -0.274 OA
ATOM     49  N   LEU A   2      27.362  34.908  26.175  0.00  0.00    -0.297 N 
ATOM     50  H   LEU A   2      27.851  34.030  25.907  0.00  0.00    +0.150 HD
BRANCH  47  51
ATOM     51  CA  HIS A   1      25.354  33.545  26.209  0.00  0.00    +0.151 C 
BRANCH  51  52
ATOM     52  N   HIS A   1      25.919  32.749  25.123  0.00  0.00    -0.238 NA
ATOM     53  H   HIS A   1      26.378  31.846  25.357  0.00  0.00    +0.142 HD
ENDBRANCH  51  52
BRANCH  51  54
ATOM     54  CB  HIS A   1      25.441  32.772  27.526  0.00  0.00    +0.074 C 
BRANCH  54  55
ATOM     55  CG  HIS A   1      24.808  33.482  28.678  0.00  0.00    +0.082 A 
ATOM     56  CD2 HIS A   1      25.262  34.518  29.425  0.00  0.00    +0.115 A 
ATOM     57  NE2 HIS A   1      24.285  34.894  30.321  0.00  0.00    -0.221 NA
ATOM     58  CE1 HIS A   1      23.268  34.081  30.110  0.00  0.00    +0.199 A 
ATOM     59  ND1 HIS A   1      23.540  33.218  29.138  0.00  0.00    -0.227 NA
ENDBRANCH  54  55
ENDBRANCH  51  54
ENDBRANCH  47  51
ENDBRANCH  46  49
BRANCH  46  60
ATOM     60  CB  LEU A   2      29.542  35.959  25.798  0.00  0.00    +0.029 C 
BRANCH  60  61
ATOM     61  CG  LEU A   2      30.559  35.315  26.720  0.00  0.00    +0.002 C 
ATOM     62  CD2 LEU A   2      30.538  35.999  28.077  0.00  0.00    +0.000 C 
ATOM     63  CD1 LEU A   2      31.937  35.466  26.086  0.00  0.00    +0.000 C 
ENDBRANCH  60  61
ENDBRANCH  46  60
ENDBRANCH  42  46
ENDBRANCH  41  43
ENDBRANCH  37  41
ENDBRANCH  36  38
BRANCH  36  64
ATOM     64  CB  THR A   4      22.542  37.543  26.119  0.00  0.00    +0.137 C 
ATOM     65  CG2 THR A   4      22.821  37.022  24.714  0.00  0.00    +0.034 C 
BRANCH  64  66
ATOM     66  OG1 THR A   4      23.036  36.602  27.079  0.00  0.00    -0.382 OA
ATOM     67  HG1 THR A   4      24.015  36.506  26.971  0.00  0.00    +0.210 HD
ENDBRANCH  64  66
ENDBRANCH  36  64
ENDBRANCH   1  36
TORSDOF 25
REMARK  Name = ../refined-set-2016/1ork/1ork_pocket.pdb
REMARK  256 active torsions:
REMARK  status: ('A' for Active; 'I' for Inactive)
REMARK    1  A    between atoms: _1  and  _3
REMARK    2  A    between atoms: _3  and  _4
REMARK    3  A    between atoms: _7  and  _9
REMARK    4  A    between atoms: _9  and  _10
REMARK    5  A    between atoms: _9  and  _12
REMARK    6  A    between atoms: _15  and  _17
REMARK    7  A    between atoms: _17  and  _18
REMARK    8  A    between atoms: _17  and  _20
REMARK    9  A    between atoms: _20  and  _21
REMARK   10  A    between atoms: _24  and  _26
REMARK   11  A    between atoms: _26  and  _27
REMARK   12  A    between atoms: _30  and  _32
REMARK   13  A    between atoms: _32  and  _33
REMARK   14  A    between atoms: _32  and  _35
REMARK   15  A    between atoms: _35  and  _36
REMARK   16  A    between atoms: _41  and  _43
REMARK   17  A    between atoms: _43  and  _44
REMARK   18  A    between atoms: _43  and  _46
REMARK   19  A    between atoms: _46  and  _47
REMARK   20  A    between atoms: _50  and  _52
REMARK   21  A    between atoms: _52  and  _53
REMARK   22  A    between atoms: _52  and  _55
REMARK   23  A    between atoms: _55  and  _56
REMARK   24  A    between atoms: _61  and  _62
REMARK   25  A    between atoms: _64  and  _66
REMARK   26  A    between atoms: _66  and  _67
REMARK   27  A    between atoms: _66  and  _69
REMARK   28  A    between atoms: _69  and  _70
REMARK   29  A    between atoms: _72  and  _74
REMARK   30  A    between atoms: _74  and  _75
REMARK   31  A    between atoms: _74  and  _77
REMARK   32  A    between atoms: _77  and  _78
REMARK   33  A    between atoms: _81  and  _83
REMARK   34  A    between atoms: _83  and  _84
REMARK   35  A    between atoms: _83  and  _86
REMARK   36  A    between atoms: _86  and  _87
REMARK   37  A    between atoms: _93  and  _95
REMARK   38  A    between atoms: _95  and  _96
REMARK   39  A    between atoms: _95  and  _98
REMARK   40  A    between atoms: _98  and  _99
REMARK   41  A    between atoms: _102  and  _104
REMARK   42  A    between atoms: _104  and  _105
REMARK   43  A    between atoms: _104  and  _107
REMARK   44  A    between atoms: _107  and  _108
REMARK   45  A    between atoms: _113  and  _115
REMARK   46  A    between atoms: _115  and  _116
REMARK   47  A    between atoms: _115  and  _118
REMARK   48  A    between atoms: _118  and  _119
REMARK   49  A    between atoms: _124  and  _126
REMARK   50  A    between atoms: _126  and  _127
REMARK   51  A    between atoms: _130  and  _132
REMARK   52  A    between atoms: _132  and  _133
REMARK   53  A    between atoms: _132  and  _135
REMARK   54  A    between atoms: _135  and  _136
REMARK   55  A    between atoms: _136  and  _137
REMARK   56  A    between atoms: _139  and  _141
REMARK   57  A    between atoms: _141  and  _142
REMARK   58  A    between atoms: _141  and  _144
REMARK   59  A    between atoms: _144  and  _145
REMARK   60  A    between atoms: _147  and  _149
REMARK   61  A    between atoms: _149  and  _150
REMARK   62  A    between atoms: _149  and  _152
REMARK   63  A    between atoms: _152  and  _153
REMARK   64  A    between atoms: _159  and  _161
REMARK   65  A    between atoms: _161  and  _162
REMARK   66  A    between atoms: _161  and  _164
REMARK   67  A    between atoms: _164  and  _165
REMARK   68  A    between atoms: _165  and  _166
REMARK   69  A    between atoms: _166  and  _167
REMARK   70  A    between atoms: _176  and  _178
REMARK   71  A    between atoms: _178  and  _179
REMARK   72  A    between atoms: _178  and  _181
REMARK   73  A    between atoms: _181  and  _182
REMARK   74  A    between atoms: _185  and  _187
REMARK   75  A    between atoms: _187  and  _188
REMARK   76  A    between atoms: _187  and  _190
REMARK   77  A    between atoms: _190  and  _191
REMARK   78  A    between atoms: _196  and  _198
REMARK   79  A    between atoms: _198  and  _199
REMARK   80  A    between atoms: _198  and  _201
REMARK   81  A    between atoms: _201  and  _202
REMARK   82  A    between atoms: _205  and  _207
REMARK   83  A    between atoms: _207  and  _208
REMARK   84  A    between atoms: _210  and  _212
REMARK   85  A    between atoms: _212  and  _213
REMARK   86  A    between atoms: _212  and  _215
REMARK   87  A    between atoms: _215  and  _216
REMARK   88  A    between atoms: _219  and  _221
REMARK   89  A    between atoms: _221  and  _222
REMARK   90  A    between atoms: _221  and  _224
REMARK   91  A    between atoms: _224  and  _225
REMARK   92  A    between atoms: _225  and  _226
REMARK   93  A    between atoms: _226  and  _227
REMARK   94  A    between atoms: _237  and  _238
REMARK   95  A    between atoms: _243  and  _245
REMARK   96  A    between atoms: _245  and  _246
REMARK   97  A    between atoms: _245  and  _248
REMARK   98  A    between atoms: _248  and  _249
REMARK   99  A    between atoms: _252  and  _254
REMARK  100  A    between atoms: _254  and  _255
REMARK  101  A    between atoms: _254  and  _257
REMARK  102  A    between atoms: _257  and  _258
REMARK  103  A    between atoms: _258  and  _259
REMARK  104  A    between atoms: _259  and  _260
REMARK  105  A    between atoms: _260  and  _261
REMARK  106  A    between atoms: _265  and  _267
REMARK  107  A    between atoms: _267  and  _268
REMARK  108  A    between atoms: _267  and  _270
REMARK  109  A    between atoms: _270  and  _271
REMARK  110  A    between atoms: _271  and  _272
REMARK  111  A    between atoms: _277  and  _279
REMARK  112  A    between atoms: _279  and  _280
REMARK  113  A    between atoms: _279  and  _282
REMARK  114  A    between atoms: _282  and  _283
REMARK  115  A    between atoms: _288  and  _289
REMARK  116  A    between atoms: _291  and  _293
REMARK  117  A    between atoms: _293  and  _294
REMARK  118  A    between atoms: _293  and  _296
REMARK  119  A    between atoms: _296  and  _297
REMARK  120  A    between atoms: _300  and  _302
REMARK  121  A    between atoms: _302  and  _303
REMARK  122  A    between atoms: _302  and  _305
REMARK  123  A    between atoms: _305  and  _306
REMARK  124  A    between atoms: _309  and  _311
REMARK  125  A    between atoms: _311  and  _312
REMARK  126  A    between atoms: _311  and  _314
REMARK  127  A    between atoms: _317  and  _319
REMARK  128  A    between atoms: _319  and  _320
REMARK  129  A    between atoms: _319  and  _322
REMARK  130  A    between atoms: _322  and  _323
REMARK  131  A    between atoms: _323  and  _324
REMARK  132  A    between atoms: _327  and  _329
REMARK  133  A    between atoms: _329  and  _330
REMARK  134  A    between atoms: _329  and  _332
REMARK  135  A    between atoms: _332  and  _333
REMARK  136  A    between atoms: _333  and  _334
REMARK  137  A    between atoms: _339  and  _341
REMARK  138  A    between atoms: _341  and  _342
REMARK  139  A    between atoms: _341  and  _344
REMARK  140  A    between atoms: _344  and  _345
REMARK  141  A    between atoms: _348  and  _350
REMARK  142  A    between atoms: _350  and  _351
REMARK  143  A    between atoms: _353  and  _355
REMARK  144  A    between atoms: _355  and  _356
REMARK  145  A    between atoms: _355  and  _358
REMARK  146  A    between atoms: _358  and  _359
REMARK  147  A    between atoms: _362  and  _364
REMARK  148  A    between atoms: _364  and  _365
REMARK  149  A    between atoms: _368  and  _370
REMARK  150  A    between atoms: _370  and  _371
REMARK  151  A    between atoms: _370  and  _373
REMARK  152  A    between atoms: _373  and  _374
REMARK  153  A    between atoms: _377  and  _379
REMARK  154  A    between atoms: _379  and  _380
REMARK  155  A    between atoms: _379  and  _382
REMARK  156  A    between atoms: _382  and  _383
REMARK  157  A    between atoms: _385  and  _387
REMARK  158  A    between atoms: _387  and  _388
REMARK  159  A    between atoms: _391  and  _393
REMARK  160  A    between atoms: _393  and  _394
REMARK  161  A    between atoms: _393  and  _396
REMARK  162  A    between atoms: _399  and  _401
REMARK  163  A    between atoms: _401  and  _402
REMARK  164  A    between atoms: _401  and  _404
REMARK  165  A    between atoms: _404  and  _405
REMARK  166  A    between atoms: _407  and  _409
REMARK  167  A    between atoms: _409  and  _410
REMARK  168  A    between atoms: _409  and  _412
REMARK  169  A    between atoms: _412  and  _413
REMARK  170  A    between atoms: _418  and  _420
REMARK  171  A    between atoms: _420  and  _421
REMARK  172  A    between atoms: _420  and  _423
REMARK  173  A    between atoms: _423  and  _424
REMARK  174  A    between atoms: _427  and  _429
REMARK  175  A    between atoms: _429  and  _430
REMARK  176  A    between atoms: _429  and  _432
REMARK  177  A    between atoms: _432  and  _433
REMARK  178  A    between atoms: _436  and  _438
REMARK  179  A    between atoms: _438  and  _439
REMARK  180  A    between atoms: _441  and  _443
REMARK  181  A    between atoms: _443  and  _444
REMARK  182  A    between atoms: _447  and  _449
REMARK  183  A    between atoms: _449  and  _450
REMARK  184  A    between atoms: _449  and  _452
REMARK  185  A    between atoms: _455  and  _457
REMARK  186  A    between atoms: _457  and  _458
REMARK  187  A    between atoms: _457  and  _460
REMARK  188  A    between atoms: _460  and  _461
REMARK  189  A    between atoms: _464  and  _466
REMARK  190  A    between atoms: _466  and  _467
REMARK  191  A    between atoms: _466  and  _469
REMARK  192  A    between atoms: _469  and  _470
REMARK  193  A    between atoms: _470  and  _471
REMARK  194  A    between atoms: _474  and  _476
REMARK  195  A    between atoms: _476  and  _477
REMARK  196  A    between atoms: _476  and  _479
REMARK  197  A    between atoms: _479  and  _480
REMARK  198  A    between atoms: _480  and  _481
REMARK  199  A    between atoms: _486  and  _488
REMARK  200  A    between atoms: _488  and  _489
REMARK  201  A    between atoms: _488  and  _491
REMARK  202  A    between atoms: _491  and  _492
REMARK  203  A    between atoms: _492  and  _493
REMARK  204  A    between atoms: _498  and  _500
REMARK  205  A    between atoms: _500  and  _501
REMARK  206  A    between atoms: _500  and  _503
REMARK  207  A    between atoms: _503  and  _504
REMARK  208  A    between atoms: _504  and  _505
REMARK  209  A    between atoms: _508  and  _510
REMARK  210  A    between atoms: _510  and  _511
REMARK  211  A    between atoms: _510  and  _513
REMARK  212  A    between atoms: _513  and  _514
REMARK  213  A    between atoms: _519  and  _521
REMARK  214  A    between atoms: _521  and  _522
REMARK  215  A    between atoms: _521  and  _524
REMARK  216  A    between atoms: _524  and  _525
REMARK  217  A    between atoms: _528  and  _530
REMARK  218  A    between atoms: _530  and  _531
REMARK  219  A    between atoms: _530  and  _533
REMARK  220  A    between atoms: _533  and  _534
REMARK  221  A    between atoms: _537  and  _539
REMARK  222  A    between atoms: _539  and  _540
REMARK  223  A    between atoms: _543  and  _545
REMARK  224  A    between atoms: _545  and  _546
REMARK  225  A    between atoms: _545  and  _548
REMARK  226  A    between atoms: _548  and  _549
REMARK  227  A    between atoms: _552  and  _554
REMARK  228  A    between atoms: _554  and  _555
REMARK  229  A    between atoms: _554  and  _557
REMARK  230  A    between atoms: _557  and  _558
REMARK  231  A    between atoms: _558  and  _559
REMARK  232  A    between atoms: _564  and  _566
REMARK  233  A    between atoms: _566  and  _567
REMARK  234  A    between atoms: _566  and  _569
REMARK  235  A    between atoms: _569  and  _570
REMARK  236  A    between atoms: _573  and  _575
REMARK  237  A    between atoms: _575  and  _576
REMARK  238  A    between atoms: _575  and  _578
REMARK  239  A    between atoms: _578  and  _579
REMARK  240  A    between atoms: _579  and  _580
REMARK  241  A    between atoms: _582  and  _584
REMARK  242  A    between atoms: _584  and  _585
REMARK  243  A    between atoms: _584  and  _587
REMARK  244  A    between atoms: _587  and  _588
REMARK  245  A    between atoms: _591  and  _593
REMARK  246  A    between atoms: _593  and  _594
REMARK  247  A    between atoms: _593  and  _596
REMARK  248  A    between atoms: _596  and  _597
REMARK  249  A    between atoms: _600  and  _602
REMARK  250  A    between atoms: _602  and  _603
REMARK  251  A    between atoms: _602  and  _605
REMARK  252  A    between atoms: _605  and  _606
REMARK  253  A    between atoms: _609  and  _611
REMARK  254  A    between atoms: _611  and  _612
REMARK  255  A    between atoms: _614  and  _616
REMARK  256  A    between atoms: _616  and  _617
REMARK                            x       y       z     vdW  Elec       q    Type
REMARK                         _______ _______ _______ _____ _____    ______ ____
ROOT
ATOM      1  C   TYR A   3      11.674  38.782  34.545  0.00  0.00    +0.241 C 
ATOM      2  O   TYR A   3      12.201  39.086  35.618  0.00  0.00    -0.273 OA
ATOM      3  N   ASP A   4      10.641  37.956  34.454  0.00  0.00    -0.297 N 
ATOM      4  H   ASP A   4      10.270  37.712  33.514  0.00  0.00    +0.150 HD
ENDROOT
BRANCH   1   5
ATOM      5  CA  TYR A   3      12.227  39.296  33.217  0.00  0.00    +0.153 C 
BRANCH   5   8
ATOM      6  C   GLN A   2      13.074  37.038  32.731  0.00  0.00    +0.241 C 
ATOM      7  O   GLN A   2      13.344  36.812  33.912  0.00  0.00    -0.273 OA
ATOM      8  N   TYR A   3      12.531  38.182  32.308  0.00  0.00    -0.297 N 
ATOM      9  H   TYR A   3      12.315  38.289  31.296  0.00  0.00    +0.150 HD
BRANCH   6  10
ATOM     10  CA  GLN A   2      13.326  35.964  31.683  0.00  0.00    +0.149 C 
BRANCH  10  13
ATOM     11  C   LYS A   1      11.320  35.643  30.341  0.00  0.00    +0.238 C 
ATOM     12  O   LYS A   1      10.734  35.028  31.241  0.00  0.00    -0.274 OA
ATOM     13  N   GLN A   2      12.545  36.135  30.475  0.00  0.00    -0.297 N 
ATOM     14  H   GLN A   2      12.961  36.664  29.682  0.00  0.00    +0.150 HD
BRANCH  11  15
ATOM     15  CA  LYS A   1      10.664  35.893  28.983  0.00  0.00    +0.145 C 
BRANCH  15  16
ATOM     16  N   LYS A   1      11.130  37.155  28.390  0.00  0.00    -0.238 NA
ATOM     17  H   LYS A   1      11.578  37.131  27.452  0.00  0.00    +0.142 HD
ENDBRANCH  15  16
BRANCH  15  18
ATOM     18  CB  LYS A   1      11.003  34.720  28.053  0.00  0.00    +0.026 C 
BRANCH  18  19
ATOM     19  CG  LYS A   1      10.033  34.487  26.899  0.00  0.00    -0.000 C 
BRANCH  19  20
ATOM     20  CD  LYS A   1       8.899  33.555  27.322  0.00  0.00    -0.024 C 
BRANCH  20  21
ATOM     21  CE  LYS A   1       7.978  33.225  26.157  0.00  0.00    -0.086 C 
BRANCH  21  22
ATOM     22  NZ  LYS A   1       6.879  32.303  26.563  0.00  0.00    +0.380 N 
ATOM     23  HZ1 LYS A   1       6.312  32.750  27.312  0.00  0.00    -0.089 HD
ATOM     24  HZ2 LYS A   1       7.287  31.415  26.919  0.00  0.00    -0.089 HD
ATOM     25  HZ3 LYS A   1       6.274  32.103  25.741  0.00  0.00    -0.089 HD
ENDBRANCH  21  22
ENDBRANCH  20  21
ENDBRANCH  19  20
ENDBRANCH  18  19
ENDBRANCH  15  18
ENDBRANCH  11  15
ENDBRANCH  10  13
BRANCH  10  26
ATOM     26  CB  GLN A   2      14.810  35.879  31.319  0.00  0.00    +0.039 C 
BRANCH  26  27
ATOM     27  CG  GLN A   2      15.110  34.673  30.425  0.00  0.00    +0.087 C 
BRANCH  27  28
ATOM     28  CD  GLN A   2      16.518  34.655  29.881  0.00  0.00    +0.219 C 
ATOM     29  OE1 GLN A   2      17.139  35.701  29.705  0.00  0.00    -0.275 OA
ATOM     30  NE2 GLN A   2      17.009  33.464  29.556  0.00  0.00    -0.329 N 
ATOM     31 HE21 GLN A   2      16.446  32.606  29.724  0.00  0.00    +0.145 HD
ATOM     32 HE22 GLN A   2      17.956  33.390  29.134  0.00  0.00    +0.145 HD
ENDBRANCH  27  28
ENDBRANCH  26  27
ENDBRANCH  10  26
ENDBRANCH   6  10
ENDBRANCH   5   8
BRANCH   5  33
ATOM     33  CB  TYR A   3      11.202  40.252  32.593  0.00  0.00    +0.055 C 
BRANCH  33  34
ATOM     34  CG  TYR A   3      11.731  41.176  31.513  0.00  0.00    -0.020 A 
ATOM     35  CD2 TYR A   3      13.057  41.110  31.089  0.00  0.00    -0.001 A 
ATOM     36  CE2 TYR A   3      13.534  41.950  30.087  0.00  0.00    +0.036 A 
ATOM     37  CZ  TYR A   3      12.679  42.870  29.505  0.00  0.00    +0.134 A 
ATOM     38  CE1 TYR A   3      11.360  42.958  29.911  0.00  0.00    +0.036 A 
ATOM     39  CD1 TYR A   3      10.895  42.116  30.907  0.00  0.00    -0.001 A 
BRANCH  37  40
ATOM     40  OH  TYR A   3      13.144  43.703  28.510  0.00  0.00    -0.506 OA
ATOM     41  HH  TYR A   3      14.101  43.512  28.341  0.00  0.00    +0.292 HD
ENDBRANCH  37  40
ENDBRANCH  33  34
ENDBRANCH   5  33
ENDBRANCH   1   5
BRANCH   3  42
ATOM     42  CA  ASP A   4      10.015  37.384  35.631  0.00  0.00    +0.160 C 
BRANCH  42  43
ATOM     43  C   ASP A   4      11.033  36.699  36.530  0.00  0.00    +0.241 C 
ATOM     44  O   ASP A   4      11.164  37.039  37.707  0.00  0.00    -0.273 OA
ATOM     45  N   THR A   5      11.786  35.773  35.946  0.00  0.00    -0.295 N 
ATOM     46  H   THR A   5      11.653  35.584  34.932  0.00  0.00    +0.150 HD
BRANCH  45  47
ATOM     47  CA  THR A   5      12.791  35.014  36.676  0.00  0.00    +0.176 C 
BRANCH  47  48
ATOM     48  C   THR A   5      13.873  35.890  37.316  0.00  0.00    +0.243 C 
ATOM     49  O   THR A   5      14.139  35.765  38.507  0.00  0.00    -0.273 OA
ATOM     50  N   VAL A   6      14.455  36.808  36.558  0.00  0.00    -0.297 N 
ATOM     51  H   VAL A   6      14.170  36.918  35.564  0.00  0.00    +0.150 HD
BRANCH  50  52
ATOM     52  CA  VAL A   6      15.493  37.663  37.117  0.00  0.00    +0.149 C 
BRANCH  52  53
ATOM     53  C   VAL A   6      14.948  38.587  38.204  0.00  0.00    +0.241 C 
ATOM     54  O   VAL A   6      15.607  38.811  39.226  0.00  0.00    -0.273 OA
ATOM     55  N   GLU A   7      13.743  39.110  37.994  0.00  0.00    -0.298 N 
ATOM     56  H   GLU A   7      13.235  38.883  37.115  0.00  0.00    +0.150 HD
BRANCH  55  57
ATOM     57  CA  GLU A   7      13.120  39.996  38.972  0.00  0.00    +0.137 C 
BRANCH  57  58
ATOM     58  C   GLU A   7      13.038  39.271  40.316  0.00  0.00    +0.227 C 
ATOM     59  O   GLU A   7      13.487  39.779  41.353  0.00  0.00    -0.286 OA
ENDBRANCH  57  58
BRANCH  57  60
ATOM     60  CB  GLU A   7      11.713  40.388  38.515  0.00  0.00    +0.039 C 
BRANCH  60  61
ATOM     61  CG  GLU A   7      10.963  41.285  39.494  0.00  0.00    +0.116 C 
BRANCH  61  62
ATOM     62  CD  GLU A   7      11.552  42.683  39.619  0.00  0.00    +0.365 C 
ATOM     63  OE2 GLU A   7      11.023  43.467  40.431  0.00  0.00    -0.246 OA
ATOM     64  OE1 GLU A   7      12.523  43.017  38.906  0.00  0.00    -0.246 OA
ENDBRANCH  61  62
ENDBRANCH  60  61
ENDBRANCH  57  60
ENDBRANCH  55  57
ENDBRANCH  52  53
BRANCH  52  65
ATOM     65  CB  VAL A   6      16.212  38.478  36.036  0.00  0.00    +0.027 C 
ATOM     66  CG2 VAL A   6      17.221  39.424  36.669  0.00  0.00    +0.002 C 
ATOM     67  CG1 VAL A   6      16.918  37.538  35.080  0.00  0.00    +0.002 C 
ENDBRANCH  52  65
ENDBRANCH  50  52
ENDBRANCH  47  48
BRANCH  47  68
ATOM     68  CB  THR A   5      13.421  33.925  35.776  0.00  0.00    +0.137 C 
ATOM     69  CG2 THR A   5      14.437  33.104  36.550  0.00  0.00    +0.034 C 
BRANCH  68  70
ATOM     70  OG1 THR A   5      12.390  33.047  35.309  0.00  0.00    -0.382 OA
ATOM     71  HG1 THR A   5      12.789  32.348  34.732  0.00  0.00    +0.210 HD
ENDBRANCH  68  70
ENDBRANCH  47  68
ENDBRANCH  45  47
ENDBRANCH  42  43
BRANCH  42  72
ATOM     72  CB  ASP A   4       8.948  36.378  35.212  0.00  0.00    +0.143 C 
BRANCH  72  73
ATOM     73  CG  ASP A   4       7.585  36.747  35.728  0.00  0.00    +0.367 C 
ATOM     74  OD2 ASP A   4       6.957  35.897  36.400  0.00  0.00    -0.246 OA
ATOM     75  OD1 ASP A   4       7.156  37.896  35.474  0.00  0.00    -0.246 OA
ENDBRANCH  72  73
ENDBRANCH  42  72
ENDBRANCH   3  42
TORSDOF 33
REMARK  Name = ../refined-set-2016/1ork/1ork_pocket.pdb
REMARK  256 active torsions:
REMARK  status: ('A' for Active; 'I' for Inactive)
REMARK    1  A    between atoms: _1  and  _3
REMARK    2  A    between atoms: _3  and  _4
REMARK    3  A    between atoms: _7  and  _9
REMARK    4  A    between atoms: _9  and  _10
REMARK    5  A    between atoms: _9  and  _12
REMARK    6  A    between atoms: _15  and  _17
REMARK    7  A    between atoms: _17  and  _18
REMARK    8  A    between atoms: _17  and  _20
REMARK    9  A    between atoms: _20  and  _21
REMARK   10  A    between atoms: _24  and  _26
REMARK   11  A    between atoms: _26  and  _27
REMARK   12  A    between atoms: _30  and  _32
REMARK   13  A    between atoms: _32  and  _33
REMARK   14  A    between atoms: _32  and  _35
REMARK   15  A    between atoms: _35  and  _36
REMARK   16  A    between atoms: _41  and  _43
REMARK   17  A    between atoms: _43  and  _44
REMARK   18  A    between atoms: _43  and  _46
REMARK   19  A    between atoms: _46  and  _47
REMARK   20  A    between atoms: _50  and  _52
REMARK   21  A    between atoms: _52  and  _53
REMARK   22  A    between atoms: _52  and  _55
REMARK   23  A    between atoms: _55  and  _56
REMARK   24  A    between atoms: _61  and  _62
REMARK   25  A    between atoms: _64  and  _66
REMARK   26  A    between atoms: _66  and  _67
REMARK   27  A    between atoms: _66  and  _69
REMARK   28  A    between atoms: _69  and  _70
REMARK   29  A    between atoms: _72  and  _74
REMARK   30  A    between atoms: _74  and  _75
REMARK   31  A    between atoms: _74  and  _77
REMARK   32  A    between atoms: _77  and  _78
REMARK   33  A    between atoms: _81  and  _83
REMARK   34  A    between atoms: _83  and  _84
REMARK   35  A    between atoms: _83  and  _86
REMARK   36  A    between atoms: _86  and  _87
REMARK   37  A    between atoms: _93  and  _95
REMARK   38  A    between atoms: _95  and  _96
REMARK   39  A    between atoms: _95  and  _98
REMARK   40  A    between atoms: _98  and  _99
REMARK   41  A    between atoms: _102  and  _104
REMARK   42  A    between atoms: _104  and  _105
REMARK   43  A    between atoms: _104  and  _107
REMARK   44  A    between atoms: _107  and  _108
REMARK   45  A    between atoms: _113  and  _115
REMARK   46  A    between atoms: _115  and  _116
REMARK   47  A    between atoms: _115  and  _118
REMARK   48  A    between atoms: _118  and  _119
REMARK   49  A    between atoms: _124  and  _126
REMARK   50  A    between atoms: _126  and  _127
REMARK   51  A    between atoms: _130  and  _132
REMARK   52  A    between atoms: _132  and  _133
REMARK   53  A    between atoms: _132  and  _135
REMARK   54  A    between atoms: _135  and  _136
REMARK   55  A    between atoms: _136  and  _137
REMARK   56  A    between atoms: _139  and  _141
REMARK   57  A    between atoms: _141  and  _142
REMARK   58  A    between atoms: _141  and  _144
REMARK   59  A    between atoms: _144  and  _145
REMARK   60  A    between atoms: _147  and  _149
REMARK   61  A    between atoms: _149  and  _150
REMARK   62  A    between atoms: _149  and  _152
REMARK   63  A    between atoms: _152  and  _153
REMARK   64  A    between atoms: _159  and  _161
REMARK   65  A    between atoms: _161  and  _162
REMARK   66  A    between atoms: _161  and  _164
REMARK   67  A    between atoms: _164  and  _165
REMARK   68  A    between atoms: _165  and  _166
REMARK   69  A    between atoms: _166  and  _167
REMARK   70  A    between atoms: _176  and  _178
REMARK   71  A    between atoms: _178  and  _179
REMARK   72  A    between atoms: _178  and  _181
REMARK   73  A    between atoms: _181  and  _182
REMARK   74  A    between atoms: _185  and  _187
REMARK   75  A    between atoms: _187  and  _188
REMARK   76  A    between atoms: _187  and  _190
REMARK   77  A    between atoms: _190  and  _191
REMARK   78  A    between atoms: _196  and  _198
REMARK   79  A    between atoms: _198  and  _199
REMARK   80  A    between atoms: _198  and  _201
REMARK   81  A    between atoms: _201  and  _202
REMARK   82  A    between atoms: _205  and  _207
REMARK   83  A    between atoms: _207  and  _208
REMARK   84  A    between atoms: _210  and  _212
REMARK   85  A    between atoms: _212  and  _213
REMARK   86  A    between atoms: _212  and  _215
REMARK   87  A    between atoms: _215  and  _216
REMARK   88  A    between atoms: _219  and  _221
REMARK   89  A    between atoms: _221  and  _222
REMARK   90  A    between atoms: _221  and  _224
REMARK   91  A    between atoms: _224  and  _225
REMARK   92  A    between atoms: _225  and  _226
REMARK   93  A    between atoms: _226  and  _227
REMARK   94  A    between atoms: _237  and  _238
REMARK   95  A    between atoms: _243  and  _245
REMARK   96  A    between atoms: _245  and  _246
REMARK   97  A    between atoms: _245  and  _248
REMARK   98  A    between atoms: _248  and  _249
REMARK   99  A    between atoms: _252  and  _254
REMARK  100  A    between atoms: _254  and  _255
REMARK  101  A    between atoms: _254  and  _257
REMARK  102  A    between atoms: _257  and  _258
REMARK  103  A    between atoms: _258  and  _259
REMARK  104  A    between atoms: _259  and  _260
REMARK  105  A    between atoms: _260  and  _261
REMARK  106  A    between atoms: _265  and  _267
REMARK  107  A    between atoms: _267  and  _268
REMARK  108  A    between atoms: _267  and  _270
REMARK  109  A    between atoms: _270  and  _271
REMARK  110  A    between atoms: _271  and  _272
REMARK  111  A    between atoms: _277  and  _279
REMARK  112  A    between atoms: _279  and  _280
REMARK  113  A    between atoms: _279  and  _282
REMARK  114  A    between atoms: _282  and  _283
REMARK  115  A    between atoms: _288  and  _289
REMARK  116  A    between atoms: _291  and  _293
REMARK  117  A    between atoms: _293  and  _294
REMARK  118  A    between atoms: _293  and  _296
REMARK  119  A    between atoms: _296  and  _297
REMARK  120  A    between atoms: _300  and  _302
REMARK  121  A    between atoms: _302  and  _303
REMARK  122  A    between atoms: _302  and  _305
REMARK  123  A    between atoms: _305  and  _306
REMARK  124  A    between atoms: _309  and  _311
REMARK  125  A    between atoms: _311  and  _312
REMARK  126  A    between atoms: _311  and  _314
REMARK  127  A    between atoms: _317  and  _319
REMARK  128  A    between atoms: _319  and  _320
REMARK  129  A    between atoms: _319  and  _322
REMARK  130  A    between atoms: _322  and  _323
REMARK  131  A    between atoms: _323  and  _324
REMARK  132  A    between atoms: _327  and  _329
REMARK  133  A    between atoms: _329  and  _330
REMARK  134  A    between atoms: _329  and  _332
REMARK  135  A    between atoms: _332  and  _333
REMARK  136  A    between atoms: _333  and  _334
REMARK  137  A    between atoms: _339  and  _341
REMARK  138  A    between atoms: _341  and  _342
REMARK  139  A    between atoms: _341  and  _344
REMARK  140  A    between atoms: _344  and  _345
REMARK  141  A    between atoms: _348  and  _350
REMARK  142  A    between atoms: _350  and  _351
REMARK  143  A    between atoms: _353  and  _355
REMARK  144  A    between atoms: _355  and  _356
REMARK  145  A    between atoms: _355  and  _358
REMARK  146  A    between atoms: _358  and  _359
REMARK  147  A    between atoms: _362  and  _364
REMARK  148  A    between atoms: _364  and  _365
REMARK  149  A    between atoms: _368  and  _370
REMARK  150  A    between atoms: _370  and  _371
REMARK  151  A    between atoms: _370  and  _373
REMARK  152  A    between atoms: _373  and  _374
REMARK  153  A    between atoms: _377  and  _379
REMARK  154  A    between atoms: _379  and  _380
REMARK  155  A    between atoms: _379  and  _382
REMARK  156  A    between atoms: _382  and  _383
REMARK  157  A    between atoms: _385  and  _387
REMARK  158  A    between atoms: _387  and  _388
REMARK  159  A    between atoms: _391  and  _393
REMARK  160  A    between atoms: _393  and  _394
REMARK  161  A    between atoms: _393  and  _396
REMARK  162  A    between atoms: _399  and  _401
REMARK  163  A    between atoms: _401  and  _402
REMARK  164  A    between atoms: _401  and  _404
REMARK  165  A    between atoms: _404  and  _405
REMARK  166  A    between atoms: _407  and  _409
REMARK  167  A    between atoms: _409  and  _410
REMARK  168  A    between atoms: _409  and  _412
REMARK  169  A    between atoms: _412  and  _413
REMARK  170  A    between atoms: _418  and  _420
REMARK  171  A    between atoms: _420  and  _421
REMARK  172  A    between atoms: _420  and  _423
REMARK  173  A    between atoms: _423  and  _424
REMARK  174  A    between atoms: _427  and  _429
REMARK  175  A    between atoms: _429  and  _430
REMARK  176  A    between atoms: _429  and  _432
REMARK  177  A    between atoms: _432  and  _433
REMARK  178  A    between atoms: _436  and  _438
REMARK  179  A    between atoms: _438  and  _439
REMARK  180  A    between atoms: _441  and  _443
REMARK  181  A    between atoms: _443  and  _444
REMARK  182  A    between atoms: _447  and  _449
REMARK  183  A    between atoms: _449  and  _450
REMARK  184  A    between atoms: _449  and  _452
REMARK  185  A    between atoms: _455  and  _457
REMARK  186  A    between atoms: _457  and  _458
REMARK  187  A    between atoms: _457  and  _460
REMARK  188  A    between atoms: _460  and  _461
REMARK  189  A    between atoms: _464  and  _466
REMARK  190  A    between atoms: _466  and  _467
REMARK  191  A    between atoms: _466  and  _469
REMARK  192  A    between atoms: _469  and  _470
REMARK  193  A    between atoms: _470  and  _471
REMARK  194  A    between atoms: _474  and  _476
REMARK  195  A    between atoms: _476  and  _477
REMARK  196  A    between atoms: _476  and  _479
REMARK  197  A    between atoms: _479  and  _480
REMARK  198  A    between atoms: _480  and  _481
REMARK  199  A    between atoms: _486  and  _488
REMARK  200  A    between atoms: _488  and  _489
REMARK  201  A    between atoms: _488  and  _491
REMARK  202  A    between atoms: _491  and  _492
REMARK  203  A    between atoms: _492  and  _493
REMARK  204  A    between atoms: _498  and  _500
REMARK  205  A    between atoms: _500  and  _501
REMARK  206  A    between atoms: _500  and  _503
REMARK  207  A    between atoms: _503  and  _504
REMARK  208  A    between atoms: _504  and  _505
REMARK  209  A    between atoms: _508  and  _510
REMARK  210  A    between atoms: _510  and  _511
REMARK  211  A    between atoms: _510  and  _513
REMARK  212  A    between atoms: _513  and  _514
REMARK  213  A    between atoms: _519  and  _521
REMARK  214  A    between atoms: _521  and  _522
REMARK  215  A    between atoms: _521  and  _524
REMARK  216  A    between atoms: _524  and  _525
REMARK  217  A    between atoms: _528  and  _530
REMARK  218  A    between atoms: _530  and  _531
REMARK  219  A    between atoms: _530  and  _533
REMARK  220  A    between atoms: _533  and  _534
REMARK  221  A    between atoms: _537  and  _539
REMARK  222  A    between atoms: _539  and  _540
REMARK  223  A    between atoms: _543  and  _545
REMARK  224  A    between atoms: _545  and  _546
REMARK  225  A    between atoms: _545  and  _548
REMARK  226  A    between atoms: _548  and  _549
REMARK  227  A    between atoms: _552  and  _554
REMARK  228  A    between atoms: _554  and  _555
REMARK  229  A    between atoms: _554  and  _557
REMARK  230  A    between atoms: _557  and  _558
REMARK  231  A    between atoms: _558  and  _559
REMARK  232  A    between atoms: _564  and  _566
REMARK  233  A    between atoms: _566  and  _567
REMARK  234  A    between atoms: _566  and  _569
REMARK  235  A    between atoms: _569  and  _570
REMARK  236  A    between atoms: _573  and  _575
REMARK  237  A    between atoms: _575  and  _576
REMARK  238  A    between atoms: _575  and  _578
REMARK  239  A    between atoms: _578  and  _579
REMARK  240  A    between atoms: _579  and  _580
REMARK  241  A    between atoms: _582  and  _584
REMARK  242  A    between atoms: _584  and  _585
REMARK  243  A    between atoms: _584  and  _587
REMARK  244  A    between atoms: _587  and  _588
REMARK  245  A    between atoms: _591  and  _593
REMARK  246  A    between atoms: _593  and  _594
REMARK  247  A    between atoms: _593  and  _596
REMARK  248  A    between atoms: _596  and  _597
REMARK  249  A    between atoms: _600  and  _602
REMARK  250  A    between atoms: _602  and  _603
REMARK  251  A    between atoms: _602  and  _605
REMARK  252  A    between atoms: _605  and  _606
REMARK  253  A    between atoms: _609  and  _611
REMARK  254  A    between atoms: _611  and  _612
REMARK  255  A    between atoms: _614  and  _616
REMARK  256  A    between atoms: _616  and  _617
REMARK                            x       y       z     vdW  Elec       q    Type
REMARK                         _______ _______ _______ _____ _____    ______ ____
ROOT
ATOM      1  C   GLN A   1      16.495  37.681  42.808  0.00  0.00    +0.238 C 
ATOM      2  O   GLN A   1      16.940  37.555  43.944  0.00  0.00    -0.274 OA
ATOM      3  N   LEU A   2      16.337  38.865  42.227  0.00  0.00    -0.298 N 
ATOM      4  H   LEU A   2      15.938  38.907  41.267  0.00  0.00    +0.150 HD
ENDROOT
BRANCH   1   5
ATOM      5  CA  GLN A   1      16.049  36.458  42.009  0.00  0.00    +0.145 C 
BRANCH   5   6
ATOM      6  N   GLN A   1      14.730  36.695  41.416  0.00  0.00    -0.238 NA
ATOM      7  H   GLN A   1      14.621  36.639  40.383  0.00  0.00    +0.142 HD
ENDBRANCH   5   6
BRANCH   5   8
ATOM      8  CB  GLN A   1      17.087  36.131  40.930  0.00  0.00    +0.036 C 
BRANCH   8   9
ATOM      9  CG  GLN A   1      16.802  34.838  40.167  0.00  0.00    +0.087 C 
BRANCH   9  10
ATOM     10  CD  GLN A   1      17.886  34.476  39.162  0.00  0.00    +0.219 C 
ATOM     11  OE1 GLN A   1      18.846  35.224  38.963  0.00  0.00    -0.275 OA
ATOM     12  NE2 GLN A   1      17.749  33.307  38.539  0.00  0.00    -0.329 N 
ATOM     13 HE21 GLN A   1      16.923  32.706  38.736  0.00  0.00    +0.145 HD
ATOM     14 HE22 GLN A   1      18.468  32.995  37.855  0.00  0.00    +0.145 HD
ENDBRANCH   9  10
ENDBRANCH   8   9
ENDBRANCH   5   8
ENDBRANCH   1   5
BRANCH   3  15
ATOM     15  CA  LEU A   2      16.707  40.109  42.896  0.00  0.00    +0.137 C 
BRANCH  15  16
ATOM     16  C   LEU A   2      15.909  40.336  44.195  0.00  0.00    +0.227 C 
ATOM     17  O   LEU A   2      16.489  40.651  45.233  0.00  0.00    -0.286 OA
ENDBRANCH  15  16
BRANCH  15  18
ATOM     18  CB  LEU A   2      16.520  41.288  41.934  0.00  0.00    +0.028 C 
BRANCH  18  19
ATOM     19  CG  LEU A   2      17.409  41.242  40.683  0.00  0.00    +0.002 C 
ATOM     20  CD2 LEU A   2      18.873  41.456  41.067  0.00  0.00    +0.000 C 
ATOM     21  CD1 LEU A   2      16.957  42.274  39.662  0.00  0.00    +0.000 C 
ENDBRANCH  18  19
ENDBRANCH  15  18
ENDBRANCH   3  15
TORSDOF 9
REMARK  Name = ../refined-set-2016/1ork/1ork_pocket.pdb
REMARK  256 active torsions:
REMARK  status: ('A' for Active; 'I' for Inactive)
REMARK    1  A    between atoms: _1  and  _3
REMARK    2  A    between atoms: _3  and  _4
REMARK    3  A    between atoms: _7  and  _9
REMARK    4  A    between atoms: _9  and  _10
REMARK    5  A    between atoms: _9  and  _12
REMARK    6  A    between atoms: _15  and  _17
REMARK    7  A    between atoms: _17  and  _18
REMARK    8  A    between atoms: _17  and  _20
REMARK    9  A    between atoms: _20  and  _21
REMARK   10  A    between atoms: _24  and  _26
REMARK   11  A    between atoms: _26  and  _27
REMARK   12  A    between atoms: _30  and  _32
REMARK   13  A    between atoms: _32  and  _33
REMARK   14  A    between atoms: _32  and  _35
REMARK   15  A    between atoms: _35  and  _36
REMARK   16  A    between atoms: _41  and  _43
REMARK   17  A    between atoms: _43  and  _44
REMARK   18  A    between atoms: _43  and  _46
REMARK   19  A    between atoms: _46  and  _47
REMARK   20  A    between atoms: _50  and  _52
REMARK   21  A    between atoms: _52  and  _53
REMARK   22  A    between atoms: _52  and  _55
REMARK   23  A    between atoms: _55  and  _56
REMARK   24  A    between atoms: _61  and  _62
REMARK   25  A    between atoms: _64  and  _66
REMARK   26  A    between atoms: _66  and  _67
REMARK   27  A    between atoms: _66  and  _69
REMARK   28  A    between atoms: _69  and  _70
REMARK   29  A    between atoms: _72  and  _74
REMARK   30  A    between atoms: _74  and  _75
REMARK   31  A    between atoms: _74  and  _77
REMARK   32  A    between atoms: _77  and  _78
REMARK   33  A    between atoms: _81  and  _83
REMARK   34  A    between atoms: _83  and  _84
REMARK   35  A    between atoms: _83  and  _86
REMARK   36  A    between atoms: _86  and  _87
REMARK   37  A    between atoms: _93  and  _95
REMARK   38  A    between atoms: _95  and  _96
REMARK   39  A    between atoms: _95  and  _98
REMARK   40  A    between atoms: _98  and  _99
REMARK   41  A    between atoms: _102  and  _104
REMARK   42  A    between atoms: _104  and  _105
REMARK   43  A    between atoms: _104  and  _107
REMARK   44  A    between atoms: _107  and  _108
REMARK   45  A    between atoms: _113  and  _115
REMARK   46  A    between atoms: _115  and  _116
REMARK   47  A    between atoms: _115  and  _118
REMARK   48  A    between atoms: _118  and  _119
REMARK   49  A    between atoms: _124  and  _126
REMARK   50  A    between atoms: _126  and  _127
REMARK   51  A    between atoms: _130  and  _132
REMARK   52  A    between atoms: _132  and  _133
REMARK   53  A    between atoms: _132  and  _135
REMARK   54  A    between atoms: _135  and  _136
REMARK   55  A    between atoms: _136  and  _137
REMARK   56  A    between atoms: _139  and  _141
REMARK   57  A    between atoms: _141  and  _142
REMARK   58  A    between atoms: _141  and  _144
REMARK   59  A    between atoms: _144  and  _145
REMARK   60  A    between atoms: _147  and  _149
REMARK   61  A    between atoms: _149  and  _150
REMARK   62  A    between atoms: _149  and  _152
REMARK   63  A    between atoms: _152  and  _153
REMARK   64  A    between atoms: _159  and  _161
REMARK   65  A    between atoms: _161  and  _162
REMARK   66  A    between atoms: _161  and  _164
REMARK   67  A    between atoms: _164  and  _165
REMARK   68  A    between atoms: _165  and  _166
REMARK   69  A    between atoms: _166  and  _167
REMARK   70  A    between atoms: _176  and  _178
REMARK   71  A    between atoms: _178  and  _179
REMARK   72  A    between atoms: _178  and  _181
REMARK   73  A    between atoms: _181  and  _182
REMARK   74  A    between atoms: _185  and  _187
REMARK   75  A    between atoms: _187  and  _188
REMARK   76  A    between atoms: _187  and  _190
REMARK   77  A    between atoms: _190  and  _191
REMARK   78  A    between atoms: _196  and  _198
REMARK   79  A    between atoms: _198  and  _199
REMARK   80  A    between atoms: _198  and  _201
REMARK   81  A    between atoms: _201  and  _202
REMARK   82  A    between atoms: _205  and  _207
REMARK   83  A    between atoms: _207  and  _208
REMARK   84  A    between atoms: _210  and  _212
REMARK   85  A    between atoms: _212  and  _213
REMARK   86  A    between atoms: _212  and  _215
REMARK   87  A    between atoms: _215  and  _216
REMARK   88  A    between atoms: _219  and  _221
REMARK   89  A    between atoms: _221  and  _222
REMARK   90  A    between atoms: _221  and  _224
REMARK   91  A    between atoms: _224  and  _225
REMARK   92  A    between atoms: _225  and  _226
REMARK   93  A    between atoms: _226  and  _227
REMARK   94  A    between atoms: _237  and  _238
REMARK   95  A    between atoms: _243  and  _245
REMARK   96  A    between atoms: _245  and  _246
REMARK   97  A    between atoms: _245  and  _248
REMARK   98  A    between atoms: _248  and  _249
REMARK   99  A    between atoms: _252  and  _254
REMARK  100  A    between atoms: _254  and  _255
REMARK  101  A    between atoms: _254  and  _257
REMARK  102  A    between atoms: _257  and  _258
REMARK  103  A    between atoms: _258  and  _259
REMARK  104  A    between atoms: _259  and  _260
REMARK  105  A    between atoms: _260  and  _261
REMARK  106  A    between atoms: _265  and  _267
REMARK  107  A    between atoms: _267  and  _268
REMARK  108  A    between atoms: _267  and  _270
REMARK  109  A    between atoms: _270  and  _271
REMARK  110  A    between atoms: _271  and  _272
REMARK  111  A    between atoms: _277  and  _279
REMARK  112  A    between atoms: _279  and  _280
REMARK  113  A    between atoms: _279  and  _282
REMARK  114  A    between atoms: _282  and  _283
REMARK  115  A    between atoms: _288  and  _289
REMARK  116  A    between atoms: _291  and  _293
REMARK  117  A    between atoms: _293  and  _294
REMARK  118  A    between atoms: _293  and  _296
REMARK  119  A    between atoms: _296  and  _297
REMARK  120  A    between atoms: _300  and  _302
REMARK  121  A    between atoms: _302  and  _303
REMARK  122  A    between atoms: _302  and  _305
REMARK  123  A    between atoms: _305  and  _306
REMARK  124  A    between atoms: _309  and  _311
REMARK  125  A    between atoms: _311  and  _312
REMARK  126  A    between atoms: _311  and  _314
REMARK  127  A    between atoms: _317  and  _319
REMARK  128  A    between atoms: _319  and  _320
REMARK  129  A    between atoms: _319  and  _322
REMARK  130  A    between atoms: _322  and  _323
REMARK  131  A    between atoms: _323  and  _324
REMARK  132  A    between atoms: _327  and  _329
REMARK  133  A    between atoms: _329  and  _330
REMARK  134  A    between atoms: _329  and  _332
REMARK  135  A    between atoms: _332  and  _333
REMARK  136  A    between atoms: _333  and  _334
REMARK  137  A    between atoms: _339  and  _341
REMARK  138  A    between atoms: _341  and  _342
REMARK  139  A    between atoms: _341  and  _344
REMARK  140  A    between atoms: _344  and  _345
REMARK  141  A    between atoms: _348  and  _350
REMARK  142  A    between atoms: _350  and  _351
REMARK  143  A    between atoms: _353  and  _355
REMARK  144  A    between atoms: _355  and  _356
REMARK  145  A    between atoms: _355  and  _358
REMARK  146  A    between atoms: _358  and  _359
REMARK  147  A    between atoms: _362  and  _364
REMARK  148  A    between atoms: _364  and  _365
REMARK  149  A    between atoms: _368  and  _370
REMARK  150  A    between atoms: _370  and  _371
REMARK  151  A    between atoms: _370  and  _373
REMARK  152  A    between atoms: _373  and  _374
REMARK  153  A    between atoms: _377  and  _379
REMARK  154  A    between atoms: _379  and  _380
REMARK  155  A    between atoms: _379  and  _382
REMARK  156  A    between atoms: _382  and  _383
REMARK  157  A    between atoms: _385  and  _387
REMARK  158  A    between atoms: _387  and  _388
REMARK  159  A    between atoms: _391  and  _393
REMARK  160  A    between atoms: _393  and  _394
REMARK  161  A    between atoms: _393  and  _396
REMARK  162  A    between atoms: _399  and  _401
REMARK  163  A    between atoms: _401  and  _402
REMARK  164  A    between atoms: _401  and  _404
REMARK  165  A    between atoms: _404  and  _405
REMARK  166  A    between atoms: _407  and  _409
REMARK  167  A    between atoms: _409  and  _410
REMARK  168  A    between atoms: _409  and  _412
REMARK  169  A    between atoms: _412  and  _413
REMARK  170  A    between atoms: _418  and  _420
REMARK  171  A    between atoms: _420  and  _421
REMARK  172  A    between atoms: _420  and  _423
REMARK  173  A    between atoms: _423  and  _424
REMARK  174  A    between atoms: _427  and  _429
REMARK  175  A    between atoms: _429  and  _430
REMARK  176  A    between atoms: _429  and  _432
REMARK  177  A    between atoms: _432  and  _433
REMARK  178  A    between atoms: _436  and  _438
REMARK  179  A    between atoms: _438  and  _439
REMARK  180  A    between atoms: _441  and  _443
REMARK  181  A    between atoms: _443  and  _444
REMARK  182  A    between atoms: _447  and  _449
REMARK  183  A    between atoms: _449  and  _450
REMARK  184  A    between atoms: _449  and  _452
REMARK  185  A    between atoms: _455  and  _457
REMARK  186  A    between atoms: _457  and  _458
REMARK  187  A    between atoms: _457  and  _460
REMARK  188  A    between atoms: _460  and  _461
REMARK  189  A    between atoms: _464  and  _466
REMARK  190  A    between atoms: _466  and  _467
REMARK  191  A    between atoms: _466  and  _469
REMARK  192  A    between atoms: _469  and  _470
REMARK  193  A    between atoms: _470  and  _471
REMARK  194  A    between atoms: _474  and  _476
REMARK  195  A    between atoms: _476  and  _477
REMARK  196  A    between atoms: _476  and  _479
REMARK  197  A    between atoms: _479  and  _480
REMARK  198  A    between atoms: _480  and  _481
REMARK  199  A    between atoms: _486  and  _488
REMARK  200  A    between atoms: _488  and  _489
REMARK  201  A    between atoms: _488  and  _491
REMARK  202  A    between atoms: _491  and  _492
REMARK  203  A    between atoms: _492  and  _493
REMARK  204  A    between atoms: _498  and  _500
REMARK  205  A    between atoms: _500  and  _501
REMARK  206  A    between atoms: _500  and  _503
REMARK  207  A    between atoms: _503  and  _504
REMARK  208  A    between atoms: _504  and  _505
REMARK  209  A    between atoms: _508  and  _510
REMARK  210  A    between atoms: _510  and  _511
REMARK  211  A    between atoms: _510  and  _513
REMARK  212  A    between atoms: _513  and  _514
REMARK  213  A    between atoms: _519  and  _521
REMARK  214  A    between atoms: _521  and  _522
REMARK  215  A    between atoms: _521  and  _524
REMARK  216  A    between atoms: _524  and  _525
REMARK  217  A    between atoms: _528  and  _530
REMARK  218  A    between atoms: _530  and  _531
REMARK  219  A    between atoms: _530  and  _533
REMARK  220  A    between atoms: _533  and  _534
REMARK  221  A    between atoms: _537  and  _539
REMARK  222  A    between atoms: _539  and  _540
REMARK  223  A    between atoms: _543  and  _545
REMARK  224  A    between atoms: _545  and  _546
REMARK  225  A    between atoms: _545  and  _548
REMARK  226  A    between atoms: _548  and  _549
REMARK  227  A    between atoms: _552  and  _554
REMARK  228  A    between atoms: _554  and  _555
REMARK  229  A    between atoms: _554  and  _557
REMARK  230  A    between atoms: _557  and  _558
REMARK  231  A    between atoms: _558  and  _559
REMARK  232  A    between atoms: _564  and  _566
REMARK  233  A    between atoms: _566  and  _567
REMARK  234  A    between atoms: _566  and  _569
REMARK  235  A    between atoms: _569  and  _570
REMARK  236  A    between atoms: _573  and  _575
REMARK  237  A    between atoms: _575  and  _576
REMARK  238  A    between atoms: _575  and  _578
REMARK  239  A    between atoms: _578  and  _579
REMARK  240  A    between atoms: _579  and  _580
REMARK  241  A    between atoms: _582  and  _584
REMARK  242  A    between atoms: _584  and  _585
REMARK  243  A    between atoms: _584  and  _587
REMARK  244  A    between atoms: _587  and  _588
REMARK  245  A    between atoms: _591  and  _593
REMARK  246  A    between atoms: _593  and  _594
REMARK  247  A    between atoms: _593  and  _596
REMARK  248  A    between atoms: _596  and  _597
REMARK  249  A    between atoms: _600  and  _602
REMARK  250  A    between atoms: _602  and  _603
REMARK  251  A    between atoms: _602  and  _605
REMARK  252  A    between atoms: _605  and  _606
REMARK  253  A    between atoms: _609  and  _611
REMARK  254  A    between atoms: _611  and  _612
REMARK  255  A    between atoms: _614  and  _616
REMARK  256  A    between atoms: _616  and  _617
REMARK                            x       y       z     vdW  Elec       q    Type
REMARK                         _______ _______ _______ _____ _____    ______ ____
ROOT
ATOM      1  C   GLY A   1      22.576  41.204  44.562  0.00  0.00    +0.240 C 
ATOM      2  O   GLY A   1      22.849  40.107  44.072  0.00  0.00    -0.274 OA
ATOM      3  N   LEU A   2      22.562  42.335  43.859  0.00  0.00    -0.298 N 
ATOM      4  H   LEU A   2      22.305  43.219  44.343  0.00  0.00    +0.150 HD
ENDROOT
BRANCH   1   5
ATOM      5  CA  GLY A   1      22.234  41.337  46.037  0.00  0.00    +0.169 C 
BRANCH   5   6
ATOM      6  N   GLY A   1      22.853  42.536  46.567  0.00  0.00    -0.236 NA
ATOM      7  H   GLY A   1      22.256  43.311  46.919  0.00  0.00    +0.142 HD
ENDBRANCH   5   6
ENDBRANCH   1   5
BRANCH   3   8
ATOM      8  CA  LEU A   2      22.892  42.387  42.441  0.00  0.00    +0.137 C 
BRANCH   8   9
ATOM      9  C   LEU A   2      24.327  41.859  42.311  0.00  0.00    +0.227 C 
ATOM     10  O   LEU A   2      24.571  40.880  41.610  0.00  0.00    -0.286 OA
ENDBRANCH   8   9
BRANCH   8  11
ATOM     11  CB  LEU A   2      22.846  43.839  41.945  0.00  0.00    +0.028 C 
BRANCH  11  12
ATOM     12  CG  LEU A   2      22.582  44.223  40.480  0.00  0.00    +0.002 C 
ATOM     13  CD2 LEU A   2      23.315  45.525  40.185  0.00  0.00    +0.000 C 
ATOM     14  CD1 LEU A   2      23.016  43.131  39.503  0.00  0.00    +0.000 C 
ENDBRANCH  11  12
ENDBRANCH   8  11
ENDBRANCH   3   8
TORSDOF 6
REMARK  Name = ../refined-set-2016/1ork/1ork_pocket.pdb
REMARK  256 active torsions:
REMARK  status: ('A' for Active; 'I' for Inactive)
REMARK    1  A    between atoms: _1  and  _3
REMARK    2  A    between atoms: _3  and  _4
REMARK    3  A    between atoms: _7  and  _9
REMARK    4  A    between atoms: _9  and  _10
REMARK    5  A    between atoms: _9  and  _12
REMARK    6  A    between atoms: _15  and  _17
REMARK    7  A    between atoms: _17  and  _18
REMARK    8  A    between atoms: _17  and  _20
REMARK    9  A    between atoms: _20  and  _21
REMARK   10  A    between atoms: _24  and  _26
REMARK   11  A    between atoms: _26  and  _27
REMARK   12  A    between atoms: _30  and  _32
REMARK   13  A    between atoms: _32  and  _33
REMARK   14  A    between atoms: _32  and  _35
REMARK   15  A    between atoms: _35  and  _36
REMARK   16  A    between atoms: _41  and  _43
REMARK   17  A    between atoms: _43  and  _44
REMARK   18  A    between atoms: _43  and  _46
REMARK   19  A    between atoms: _46  and  _47
REMARK   20  A    between atoms: _50  and  _52
REMARK   21  A    between atoms: _52  and  _53
REMARK   22  A    between atoms: _52  and  _55
REMARK   23  A    between atoms: _55  and  _56
REMARK   24  A    between atoms: _61  and  _62
REMARK   25  A    between atoms: _64  and  _66
REMARK   26  A    between atoms: _66  and  _67
REMARK   27  A    between atoms: _66  and  _69
REMARK   28  A    between atoms: _69  and  _70
REMARK   29  A    between atoms: _72  and  _74
REMARK   30  A    between atoms: _74  and  _75
REMARK   31  A    between atoms: _74  and  _77
REMARK   32  A    between atoms: _77  and  _78
REMARK   33  A    between atoms: _81  and  _83
REMARK   34  A    between atoms: _83  and  _84
REMARK   35  A    between atoms: _83  and  _86
REMARK   36  A    between atoms: _86  and  _87
REMARK   37  A    between atoms: _93  and  _95
REMARK   38  A    between atoms: _95  and  _96
REMARK   39  A    between atoms: _95  and  _98
REMARK   40  A    between atoms: _98  and  _99
REMARK   41  A    between atoms: _102  and  _104
REMARK   42  A    between atoms: _104  and  _105
REMARK   43  A    between atoms: _104  and  _107
REMARK   44  A    between atoms: _107  and  _108
REMARK   45  A    between atoms: _113  and  _115
REMARK   46  A    between atoms: _115  and  _116
REMARK   47  A    between atoms: _115  and  _118
REMARK   48  A    between atoms: _118  and  _119
REMARK   49  A    between atoms: _124  and  _126
REMARK   50  A    between atoms: _126  and  _127
REMARK   51  A    between atoms: _130  and  _132
REMARK   52  A    between atoms: _132  and  _133
REMARK   53  A    between atoms: _132  and  _135
REMARK   54  A    between atoms: _135  and  _136
REMARK   55  A    between atoms: _136  and  _137
REMARK   56  A    between atoms: _139  and  _141
REMARK   57  A    between atoms: _141  and  _142
REMARK   58  A    between atoms: _141  and  _144
REMARK   59  A    between atoms: _144  and  _145
REMARK   60  A    between atoms: _147  and  _149
REMARK   61  A    between atoms: _149  and  _150
REMARK   62  A    between atoms: _149  and  _152
REMARK   63  A    between atoms: _152  and  _153
REMARK   64  A    between atoms: _159  and  _161
REMARK   65  A    between atoms: _161  and  _162
REMARK   66  A    between atoms: _161  and  _164
REMARK   67  A    between atoms: _164  and  _165
REMARK   68  A    between atoms: _165  and  _166
REMARK   69  A    between atoms: _166  and  _167
REMARK   70  A    between atoms: _176  and  _178
REMARK   71  A    between atoms: _178  and  _179
REMARK   72  A    between atoms: _178  and  _181
REMARK   73  A    between atoms: _181  and  _182
REMARK   74  A    between atoms: _185  and  _187
REMARK   75  A    between atoms: _187  and  _188
REMARK   76  A    between atoms: _187  and  _190
REMARK   77  A    between atoms: _190  and  _191
REMARK   78  A    between atoms: _196  and  _198
REMARK   79  A    between atoms: _198  and  _199
REMARK   80  A    between atoms: _198  and  _201
REMARK   81  A    between atoms: _201  and  _202
REMARK   82  A    between atoms: _205  and  _207
REMARK   83  A    between atoms: _207  and  _208
REMARK   84  A    between atoms: _210  and  _212
REMARK   85  A    between atoms: _212  and  _213
REMARK   86  A    between atoms: _212  and  _215
REMARK   87  A    between atoms: _215  and  _216
REMARK   88  A    between atoms: _219  and  _221
REMARK   89  A    between atoms: _221  and  _222
REMARK   90  A    between atoms: _221  and  _224
REMARK   91  A    between atoms: _224  and  _225
REMARK   92  A    between atoms: _225  and  _226
REMARK   93  A    between atoms: _226  and  _227
REMARK   94  A    between atoms: _237  and  _238
REMARK   95  A    between atoms: _243  and  _245
REMARK   96  A    between atoms: _245  and  _246
REMARK   97  A    between atoms: _245  and  _248
REMARK   98  A    between atoms: _248  and  _249
REMARK   99  A    between atoms: _252  and  _254
REMARK  100  A    between atoms: _254  and  _255
REMARK  101  A    between atoms: _254  and  _257
REMARK  102  A    between atoms: _257  and  _258
REMARK  103  A    between atoms: _258  and  _259
REMARK  104  A    between atoms: _259  and  _260
REMARK  105  A    between atoms: _260  and  _261
REMARK  106  A    between atoms: _265  and  _267
REMARK  107  A    between atoms: _267  and  _268
REMARK  108  A    between atoms: _267  and  _270
REMARK  109  A    between atoms: _270  and  _271
REMARK  110  A    between atoms: _271  and  _272
REMARK  111  A    between atoms: _277  and  _279
REMARK  112  A    between atoms: _279  and  _280
REMARK  113  A    between atoms: _279  and  _282
REMARK  114  A    between atoms: _282  and  _283
REMARK  115  A    between atoms: _288  and  _289
REMARK  116  A    between atoms: _291  and  _293
REMARK  117  A    between atoms: _293  and  _294
REMARK  118  A    between atoms: _293  and  _296
REMARK  119  A    between atoms: _296  and  _297
REMARK  120  A    between atoms: _300  and  _302
REMARK  121  A    between atoms: _302  and  _303
REMARK  122  A    between atoms: _302  and  _305
REMARK  123  A    between atoms: _305  and  _306
REMARK  124  A    between atoms: _309  and  _311
REMARK  125  A    between atoms: _311  and  _312
REMARK  126  A    between atoms: _311  and  _314
REMARK  127  A    between atoms: _317  and  _319
REMARK  128  A    between atoms: _319  and  _320
REMARK  129  A    between atoms: _319  and  _322
REMARK  130  A    between atoms: _322  and  _323
REMARK  131  A    between atoms: _323  and  _324
REMARK  132  A    between atoms: _327  and  _329
REMARK  133  A    between atoms: _329  and  _330
REMARK  134  A    between atoms: _329  and  _332
REMARK  135  A    between atoms: _332  and  _333
REMARK  136  A    between atoms: _333  and  _334
REMARK  137  A    between atoms: _339  and  _341
REMARK  138  A    between atoms: _341  and  _342
REMARK  139  A    between atoms: _341  and  _344
REMARK  140  A    between atoms: _344  and  _345
REMARK  141  A    between atoms: _348  and  _350
REMARK  142  A    between atoms: _350  and  _351
REMARK  143  A    between atoms: _353  and  _355
REMARK  144  A    between atoms: _355  and  _356
REMARK  145  A    between atoms: _355  and  _358
REMARK  146  A    between atoms: _358  and  _359
REMARK  147  A    between atoms: _362  and  _364
REMARK  148  A    between atoms: _364  and  _365
REMARK  149  A    between atoms: _368  and  _370
REMARK  150  A    between atoms: _370  and  _371
REMARK  151  A    between atoms: _370  and  _373
REMARK  152  A    between atoms: _373  and  _374
REMARK  153  A    between atoms: _377  and  _379
REMARK  154  A    between atoms: _379  and  _380
REMARK  155  A    between atoms: _379  and  _382
REMARK  156  A    between atoms: _382  and  _383
REMARK  157  A    between atoms: _385  and  _387
REMARK  158  A    between atoms: _387  and  _388
REMARK  159  A    between atoms: _391  and  _393
REMARK  160  A    between atoms: _393  and  _394
REMARK  161  A    between atoms: _393  and  _396
REMARK  162  A    between atoms: _399  and  _401
REMARK  163  A    between atoms: _401  and  _402
REMARK  164  A    between atoms: _401  and  _404
REMARK  165  A    between atoms: _404  and  _405
REMARK  166  A    between atoms: _407  and  _409
REMARK  167  A    between atoms: _409  and  _410
REMARK  168  A    between atoms: _409  and  _412
REMARK  169  A    between atoms: _412  and  _413
REMARK  170  A    between atoms: _418  and  _420
REMARK  171  A    between atoms: _420  and  _421
REMARK  172  A    between atoms: _420  and  _423
REMARK  173  A    between atoms: _423  and  _424
REMARK  174  A    between atoms: _427  and  _429
REMARK  175  A    between atoms: _429  and  _430
REMARK  176  A    between atoms: _429  and  _432
REMARK  177  A    between atoms: _432  and  _433
REMARK  178  A    between atoms: _436  and  _438
REMARK  179  A    between atoms: _438  and  _439
REMARK  180  A    between atoms: _441  and  _443
REMARK  181  A    between atoms: _443  and  _444
REMARK  182  A    between atoms: _447  and  _449
REMARK  183  A    between atoms: _449  and  _450
REMARK  184  A    between atoms: _449  and  _452
REMARK  185  A    between atoms: _455  and  _457
REMARK  186  A    between atoms: _457  and  _458
REMARK  187  A    between atoms: _457  and  _460
REMARK  188  A    between atoms: _460  and  _461
REMARK  189  A    between atoms: _464  and  _466
REMARK  190  A    between atoms: _466  and  _467
REMARK  191  A    between atoms: _466  and  _469
REMARK  192  A    between atoms: _469  and  _470
REMARK  193  A    between atoms: _470  and  _471
REMARK  194  A    between atoms: _474  and  _476
REMARK  195  A    between atoms: _476  and  _477
REMARK  196  A    between atoms: _476  and  _479
REMARK  197  A    between atoms: _479  and  _480
REMARK  198  A    between atoms: _480  and  _481
REMARK  199  A    between atoms: _486  and  _488
REMARK  200  A    between atoms: _488  and  _489
REMARK  201  A    between atoms: _488  and  _491
REMARK  202  A    between atoms: _491  and  _492
REMARK  203  A    between atoms: _492  and  _493
REMARK  204  A    between atoms: _498  and  _500
REMARK  205  A    between atoms: _500  and  _501
REMARK  206  A    between atoms: _500  and  _503
REMARK  207  A    between atoms: _503  and  _504
REMARK  208  A    between atoms: _504  and  _505
REMARK  209  A    between atoms: _508  and  _510
REMARK  210  A    between atoms: _510  and  _511
REMARK  211  A    between atoms: _510  and  _513
REMARK  212  A    between atoms: _513  and  _514
REMARK  213  A    between atoms: _519  and  _521
REMARK  214  A    between atoms: _521  and  _522
REMARK  215  A    between atoms: _521  and  _524
REMARK  216  A    between atoms: _524  and  _525
REMARK  217  A    between atoms: _528  and  _530
REMARK  218  A    between atoms: _530  and  _531
REMARK  219  A    between atoms: _530  and  _533
REMARK  220  A    between atoms: _533  and  _534
REMARK  221  A    between atoms: _537  and  _539
REMARK  222  A    between atoms: _539  and  _540
REMARK  223  A    between atoms: _543  and  _545
REMARK  224  A    between atoms: _545  and  _546
REMARK  225  A    between atoms: _545  and  _548
REMARK  226  A    between atoms: _548  and  _549
REMARK  227  A    between atoms: _552  and  _554
REMARK  228  A    between atoms: _554  and  _555
REMARK  229  A    between atoms: _554  and  _557
REMARK  230  A    between atoms: _557  and  _558
REMARK  231  A    between atoms: _558  and  _559
REMARK  232  A    between atoms: _564  and  _566
REMARK  233  A    between atoms: _566  and  _567
REMARK  234  A    between atoms: _566  and  _569
REMARK  235  A    between atoms: _569  and  _570
REMARK  236  A    between atoms: _573  and  _575
REMARK  237  A    between atoms: _575  and  _576
REMARK  238  A    between atoms: _575  and  _578
REMARK  239  A    between atoms: _578  and  _579
REMARK  240  A    between atoms: _579  and  _580
REMARK  241  A    between atoms: _582  and  _584
REMARK  242  A    between atoms: _584  and  _585
REMARK  243  A    between atoms: _584  and  _587
REMARK  244  A    between atoms: _587  and  _588
REMARK  245  A    between atoms: _591  and  _593
REMARK  246  A    between atoms: _593  and  _594
REMARK  247  A    between atoms: _593  and  _596
REMARK  248  A    between atoms: _596  and  _597
REMARK  249  A    between atoms: _600  and  _602
REMARK  250  A    between atoms: _602  and  _603
REMARK  251  A    between atoms: _602  and  _605
REMARK  252  A    between atoms: _605  and  _606
REMARK  253  A    between atoms: _609  and  _611
REMARK  254  A    between atoms: _611  and  _612
REMARK  255  A    between atoms: _614  and  _616
REMARK  256  A    between atoms: _616  and  _617
REMARK                            x       y       z     vdW  Elec       q    Type
REMARK                         _______ _______ _______ _____ _____    ______ ____
ROOT
ATOM      1  C   ALA A   4      29.674  36.152  40.425  0.00  0.00    +0.241 C 
ATOM      2  N   VAL A   5      28.549  35.588  40.829  0.00  0.00    -0.297 N 
ATOM      3  H   VAL A   5      27.838  36.151  41.337  0.00  0.00    +0.150 HD
ATOM      4  O   ALA A   4      30.532  35.529  39.807  0.00  0.00    -0.273 OA
ENDROOT
BRANCH   1   5
ATOM      5  CA  ALA A   4      29.847  37.637  40.730  0.00  0.00    +0.149 C 
ATOM      6  CB  ALA A   4      30.302  37.829  42.164  0.00  0.00    +0.031 C 
BRANCH   5   8
ATOM      7  C   SER A   3      27.968  38.284  39.312  0.00  0.00    +0.243 C 
ATOM      8  N   ALA A   4      28.615  38.385  40.473  0.00  0.00    -0.297 N 
ATOM      9  H   ALA A   4      28.236  39.009  41.213  0.00  0.00    +0.150 HD
ATOM     10  O   SER A   3      28.380  37.580  38.384  0.00  0.00    -0.273 OA
BRANCH   7  11
ATOM     11  CA  SER A   3      26.690  39.109  39.140  0.00  0.00    +0.178 C 
BRANCH  11  13
ATOM     12  C   ILE A   2      25.181  37.641  40.372  0.00  0.00    +0.241 C 
ATOM     13  N   SER A   3      25.721  38.835  40.183  0.00  0.00    -0.295 N 
ATOM     14  H   SER A   3      25.437  39.613  40.812  0.00  0.00    +0.150 HD
ATOM     15  O   ILE A   2      25.450  36.657  39.681  0.00  0.00    -0.273 OA
BRANCH  12  16
ATOM     16  CA  ILE A   2      24.203  37.532  41.542  0.00  0.00    +0.148 C 
BRANCH  16  19
ATOM     17  C   ALA A   1      25.886  37.806  43.312  0.00  0.00    +0.238 C 
ATOM     18  O   ALA A   1      26.560  36.868  42.916  0.00  0.00    -0.274 OA
ATOM     19  N   ILE A   2      24.749  38.182  42.735  0.00  0.00    -0.297 N 
ATOM     20  H   ILE A   2      24.222  38.976  43.151  0.00  0.00    +0.150 HD
BRANCH  17  21
ATOM     21  CA  ALA A   1      26.308  38.608  44.532  0.00  0.00    +0.145 C 
ATOM     22  CB  ALA A   1      25.428  38.241  45.717  0.00  0.00    +0.028 C 
BRANCH  21  23
ATOM     23  N   ALA A   1      26.167  40.029  44.211  0.00  0.00    -0.238 NA
ATOM     24  H   ALA A   1      25.463  40.596  44.726  0.00  0.00    +0.142 HD
ENDBRANCH  21  23
ENDBRANCH  17  21
ENDBRANCH  16  19
BRANCH  16  25
ATOM     25  CB  ILE A   2      22.837  38.153  41.176  0.00  0.00    +0.027 C 
ATOM     26  CG2 ILE A   2      22.488  37.925  39.699  0.00  0.00    +0.002 C 
BRANCH  25  27
ATOM     27  CG1 ILE A   2      21.762  37.582  42.097  0.00  0.00    +0.002 C 
ATOM     28  CD1 ILE A   2      20.397  38.180  41.865  0.00  0.00    +0.000 C 
ENDBRANCH  25  27
ENDBRANCH  16  25
ENDBRANCH  12  16
ENDBRANCH  11  13
BRANCH  11  29
ATOM     29  CB  SER A   3      27.050  40.593  39.137  0.00  0.00    +0.166 C 
BRANCH  29  30
ATOM     30  OG  SER A   3      25.915  41.379  38.838  0.00  0.00    -0.380 OA
ATOM     31  H   SER A   3      25.215  41.219  39.520  0.00  0.00    +0.211 HD
ENDBRANCH  29  30
ENDBRANCH  11  29
ENDBRANCH   7  11
ENDBRANCH   5   8
ENDBRANCH   1   5
BRANCH   2  32
ATOM     32  CA  VAL A   5      28.308  34.188  40.564  0.00  0.00    +0.149 C 
BRANCH  32  33
ATOM     33  C   VAL A   5      28.271  33.984  39.048  0.00  0.00    +0.241 C 
ATOM     34  O   VAL A   5      28.966  33.123  38.513  0.00  0.00    -0.273 OA
ATOM     35  N   SER A   6      27.509  34.822  38.356  0.00  0.00    -0.295 N 
ATOM     36  H   SER A   6      26.981  35.561  38.863  0.00  0.00    +0.150 HD
BRANCH  35  37
ATOM     37  CA  SER A   6      27.392  34.737  36.911  0.00  0.00    +0.178 C 
BRANCH  37  38
ATOM     38  C   SER A   6      28.746  34.850  36.201  0.00  0.00    +0.243 C 
ATOM     39  N   HIS A   7      29.529  35.860  36.571  0.00  0.00    -0.298 N 
ATOM     40  H   HIS A   7      29.202  36.503  37.320  0.00  0.00    +0.150 HD
ATOM     41  O   SER A   6      29.104  33.994  35.382  0.00  0.00    -0.273 OA
BRANCH  39  42
ATOM     42  CA  HIS A   7      30.834  36.093  35.958  0.00  0.00    +0.143 C 
BRANCH  42  43
ATOM     43  C   HIS A   7      31.818  34.987  36.236  0.00  0.00    +0.227 C 
ATOM     44  O   HIS A   7      32.619  34.628  35.371  0.00  0.00    -0.286 OA
ENDBRANCH  42  43
BRANCH  42  45
ATOM     45  CB  HIS A   7      31.403  37.430  36.405  0.00  0.00    +0.075 C 
BRANCH  45  46
ATOM     46  CG  HIS A   7      30.578  38.598  35.970  0.00  0.00    +0.082 A 
ATOM     47  ND1 HIS A   7      30.817  39.886  36.406  0.00  0.00    -0.227 NA
ATOM     48  CE1 HIS A   7      29.901  40.694  35.901  0.00  0.00    +0.199 A 
ATOM     49  NE2 HIS A   7      29.080  39.978  35.155  0.00  0.00    -0.221 NA
ATOM     50  CD2 HIS A   7      29.482  38.665  35.175  0.00  0.00    +0.115 A 
ENDBRANCH  45  46
ENDBRANCH  42  45
ENDBRANCH  39  42
ENDBRANCH  37  38
BRANCH  37  51
ATOM     51  CB  SER A   6      26.428  35.815  36.410  0.00  0.00    +0.166 C 
BRANCH  51  52
ATOM     52  OG  SER A   6      25.095  35.503  36.785  0.00  0.00    -0.380 OA
ATOM     53  H   SER A   6      25.035  35.450  37.772  0.00  0.00    +0.211 HD
ENDBRANCH  51  52
ENDBRANCH  37  51
ENDBRANCH  35  37
ENDBRANCH  32  33
BRANCH  32  54
ATOM     54  CB  VAL A   5      27.003  33.723  41.254  0.00  0.00    +0.027 C 
ATOM     55  CG2 VAL A   5      27.239  33.643  42.755  0.00  0.00    +0.002 C 
ATOM     56  CG1 VAL A   5      26.573  32.361  40.737  0.00  0.00    +0.002 C 
ENDBRANCH  32  54
ENDBRANCH   2  32
TORSDOF 23
REMARK  Name = ../refined-set-2016/1ork/1ork_pocket.pdb
REMARK  256 active torsions:
REMARK  status: ('A' for Active; 'I' for Inactive)
REMARK    1  A    between atoms: _1  and  _3
REMARK    2  A    between atoms: _3  and  _4
REMARK    3  A    between atoms: _7  and  _9
REMARK    4  A    between atoms: _9  and  _10
REMARK    5  A    between atoms: _9  and  _12
REMARK    6  A    between atoms: _15  and  _17
REMARK    7  A    between atoms: _17  and  _18
REMARK    8  A    between atoms: _17  and  _20
REMARK    9  A    between atoms: _20  and  _21
REMARK   10  A    between atoms: _24  and  _26
REMARK   11  A    between atoms: _26  and  _27
REMARK   12  A    between atoms: _30  and  _32
REMARK   13  A    between atoms: _32  and  _33
REMARK   14  A    between atoms: _32  and  _35
REMARK   15  A    between atoms: _35  and  _36
REMARK   16  A    between atoms: _41  and  _43
REMARK   17  A    between atoms: _43  and  _44
REMARK   18  A    between atoms: _43  and  _46
REMARK   19  A    between atoms: _46  and  _47
REMARK   20  A    between atoms: _50  and  _52
REMARK   21  A    between atoms: _52  and  _53
REMARK   22  A    between atoms: _52  and  _55
REMARK   23  A    between atoms: _55  and  _56
REMARK   24  A    between atoms: _61  and  _62
REMARK   25  A    between atoms: _64  and  _66
REMARK   26  A    between atoms: _66  and  _67
REMARK   27  A    between atoms: _66  and  _69
REMARK   28  A    between atoms: _69  and  _70
REMARK   29  A    between atoms: _72  and  _74
REMARK   30  A    between atoms: _74  and  _75
REMARK   31  A    between atoms: _74  and  _77
REMARK   32  A    between atoms: _77  and  _78
REMARK   33  A    between atoms: _81  and  _83
REMARK   34  A    between atoms: _83  and  _84
REMARK   35  A    between atoms: _83  and  _86
REMARK   36  A    between atoms: _86  and  _87
REMARK   37  A    between atoms: _93  and  _95
REMARK   38  A    between atoms: _95  and  _96
REMARK   39  A    between atoms: _95  and  _98
REMARK   40  A    between atoms: _98  and  _99
REMARK   41  A    between atoms: _102  and  _104
REMARK   42  A    between atoms: _104  and  _105
REMARK   43  A    between atoms: _104  and  _107
REMARK   44  A    between atoms: _107  and  _108
REMARK   45  A    between atoms: _113  and  _115
REMARK   46  A    between atoms: _115  and  _116
REMARK   47  A    between atoms: _115  and  _118
REMARK   48  A    between atoms: _118  and  _119
REMARK   49  A    between atoms: _124  and  _126
REMARK   50  A    between atoms: _126  and  _127
REMARK   51  A    between atoms: _130  and  _132
REMARK   52  A    between atoms: _132  and  _133
REMARK   53  A    between atoms: _132  and  _135
REMARK   54  A    between atoms: _135  and  _136
REMARK   55  A    between atoms: _136  and  _137
REMARK   56  A    between atoms: _139  and  _141
REMARK   57  A    between atoms: _141  and  _142
REMARK   58  A    between atoms: _141  and  _144
REMARK   59  A    between atoms: _144  and  _145
REMARK   60  A    between atoms: _147  and  _149
REMARK   61  A    between atoms: _149  and  _150
REMARK   62  A    between atoms: _149  and  _152
REMARK   63  A    between atoms: _152  and  _153
REMARK   64  A    between atoms: _159  and  _161
REMARK   65  A    between atoms: _161  and  _162
REMARK   66  A    between atoms: _161  and  _164
REMARK   67  A    between atoms: _164  and  _165
REMARK   68  A    between atoms: _165  and  _166
REMARK   69  A    between atoms: _166  and  _167
REMARK   70  A    between atoms: _176  and  _178
REMARK   71  A    between atoms: _178  and  _179
REMARK   72  A    between atoms: _178  and  _181
REMARK   73  A    between atoms: _181  and  _182
REMARK   74  A    between atoms: _185  and  _187
REMARK   75  A    between atoms: _187  and  _188
REMARK   76  A    between atoms: _187  and  _190
REMARK   77  A    between atoms: _190  and  _191
REMARK   78  A    between atoms: _196  and  _198
REMARK   79  A    between atoms: _198  and  _199
REMARK   80  A    between atoms: _198  and  _201
REMARK   81  A    between atoms: _201  and  _202
REMARK   82  A    between atoms: _205  and  _207
REMARK   83  A    between atoms: _207  and  _208
REMARK   84  A    between atoms: _210  and  _212
REMARK   85  A    between atoms: _212  and  _213
REMARK   86  A    between atoms: _212  and  _215
REMARK   87  A    between atoms: _215  and  _216
REMARK   88  A    between atoms: _219  and  _221
REMARK   89  A    between atoms: _221  and  _222
REMARK   90  A    between atoms: _221  and  _224
REMARK   91  A    between atoms: _224  and  _225
REMARK   92  A    between atoms: _225  and  _226
REMARK   93  A    between atoms: _226  and  _227
REMARK   94  A    between atoms: _237  and  _238
REMARK   95  A    between atoms: _243  and  _245
REMARK   96  A    between atoms: _245  and  _246
REMARK   97  A    between atoms: _245  and  _248
REMARK   98  A    between atoms: _248  and  _249
REMARK   99  A    between atoms: _252  and  _254
REMARK  100  A    between atoms: _254  and  _255
REMARK  101  A    between atoms: _254  and  _257
REMARK  102  A    between atoms: _257  and  _258
REMARK  103  A    between atoms: _258  and  _259
REMARK  104  A    between atoms: _259  and  _260
REMARK  105  A    between atoms: _260  and  _261
REMARK  106  A    between atoms: _265  and  _267
REMARK  107  A    between atoms: _267  and  _268
REMARK  108  A    between atoms: _267  and  _270
REMARK  109  A    between atoms: _270  and  _271
REMARK  110  A    between atoms: _271  and  _272
REMARK  111  A    between atoms: _277  and  _279
REMARK  112  A    between atoms: _279  and  _280
REMARK  113  A    between atoms: _279  and  _282
REMARK  114  A    between atoms: _282  and  _283
REMARK  115  A    between atoms: _288  and  _289
REMARK  116  A    between atoms: _291  and  _293
REMARK  117  A    between atoms: _293  and  _294
REMARK  118  A    between atoms: _293  and  _296
REMARK  119  A    between atoms: _296  and  _297
REMARK  120  A    between atoms: _300  and  _302
REMARK  121  A    between atoms: _302  and  _303
REMARK  122  A    between atoms: _302  and  _305
REMARK  123  A    between atoms: _305  and  _306
REMARK  124  A    between atoms: _309  and  _311
REMARK  125  A    between atoms: _311  and  _312
REMARK  126  A    between atoms: _311  and  _314
REMARK  127  A    between atoms: _317  and  _319
REMARK  128  A    between atoms: _319  and  _320
REMARK  129  A    between atoms: _319  and  _322
REMARK  130  A    between atoms: _322  and  _323
REMARK  131  A    between atoms: _323  and  _324
REMARK  132  A    between atoms: _327  and  _329
REMARK  133  A    between atoms: _329  and  _330
REMARK  134  A    between atoms: _329  and  _332
REMARK  135  A    between atoms: _332  and  _333
REMARK  136  A    between atoms: _333  and  _334
REMARK  137  A    between atoms: _339  and  _341
REMARK  138  A    between atoms: _341  and  _342
REMARK  139  A    between atoms: _341  and  _344
REMARK  140  A    between atoms: _344  and  _345
REMARK  141  A    between atoms: _348  and  _350
REMARK  142  A    between atoms: _350  and  _351
REMARK  143  A    between atoms: _353  and  _355
REMARK  144  A    between atoms: _355  and  _356
REMARK  145  A    between atoms: _355  and  _358
REMARK  146  A    between atoms: _358  and  _359
REMARK  147  A    between atoms: _362  and  _364
REMARK  148  A    between atoms: _364  and  _365
REMARK  149  A    between atoms: _368  and  _370
REMARK  150  A    between atoms: _370  and  _371
REMARK  151  A    between atoms: _370  and  _373
REMARK  152  A    between atoms: _373  and  _374
REMARK  153  A    between atoms: _377  and  _379
REMARK  154  A    between atoms: _379  and  _380
REMARK  155  A    between atoms: _379  and  _382
REMARK  156  A    between atoms: _382  and  _383
REMARK  157  A    between atoms: _385  and  _387
REMARK  158  A    between atoms: _387  and  _388
REMARK  159  A    between atoms: _391  and  _393
REMARK  160  A    between atoms: _393  and  _394
REMARK  161  A    between atoms: _393  and  _396
REMARK  162  A    between atoms: _399  and  _401
REMARK  163  A    between atoms: _401  and  _402
REMARK  164  A    between atoms: _401  and  _404
REMARK  165  A    between atoms: _404  and  _405
REMARK  166  A    between atoms: _407  and  _409
REMARK  167  A    between atoms: _409  and  _410
REMARK  168  A    between atoms: _409  and  _412
REMARK  169  A    between atoms: _412  and  _413
REMARK  170  A    between atoms: _418  and  _420
REMARK  171  A    between atoms: _420  and  _421
REMARK  172  A    between atoms: _420  and  _423
REMARK  173  A    between atoms: _423  and  _424
REMARK  174  A    between atoms: _427  and  _429
REMARK  175  A    between atoms: _429  and  _430
REMARK  176  A    between atoms: _429  and  _432
REMARK  177  A    between atoms: _432  and  _433
REMARK  178  A    between atoms: _436  and  _438
REMARK  179  A    between atoms: _438  and  _439
REMARK  180  A    between atoms: _441  and  _443
REMARK  181  A    between atoms: _443  and  _444
REMARK  182  A    between atoms: _447  and  _449
REMARK  183  A    between atoms: _449  and  _450
REMARK  184  A    between atoms: _449  and  _452
REMARK  185  A    between atoms: _455  and  _457
REMARK  186  A    between atoms: _457  and  _458
REMARK  187  A    between atoms: _457  and  _460
REMARK  188  A    between atoms: _460  and  _461
REMARK  189  A    between atoms: _464  and  _466
REMARK  190  A    between atoms: _466  and  _467
REMARK  191  A    between atoms: _466  and  _469
REMARK  192  A    between atoms: _469  and  _470
REMARK  193  A    between atoms: _470  and  _471
REMARK  194  A    between atoms: _474  and  _476
REMARK  195  A    between atoms: _476  and  _477
REMARK  196  A    between atoms: _476  and  _479
REMARK  197  A    between atoms: _479  and  _480
REMARK  198  A    between atoms: _480  and  _481
REMARK  199  A    between atoms: _486  and  _488
REMARK  200  A    between atoms: _488  and  _489
REMARK  201  A    between atoms: _488  and  _491
REMARK  202  A    between atoms: _491  and  _492
REMARK  203  A    between atoms: _492  and  _493
REMARK  204  A    between atoms: _498  and  _500
REMARK  205  A    between atoms: _500  and  _501
REMARK  206  A    between atoms: _500  and  _503
REMARK  207  A    between atoms: _503  and  _504
REMARK  208  A    between atoms: _504  and  _505
REMARK  209  A    between atoms: _508  and  _510
REMARK  210  A    between atoms: _510  and  _511
REMARK  211  A    between atoms: _510  and  _513
REMARK  212  A    between atoms: _513  and  _514
REMARK  213  A    between atoms: _519  and  _521
REMARK  214  A    between atoms: _521  and  _522
REMARK  215  A    between atoms: _521  and  _524
REMARK  216  A    between atoms: _524  and  _525
REMARK  217  A    between atoms: _528  and  _530
REMARK  218  A    between atoms: _530  and  _531
REMARK  219  A    between atoms: _530  and  _533
REMARK  220  A    between atoms: _533  and  _534
REMARK  221  A    between atoms: _537  and  _539
REMARK  222  A    between atoms: _539  and  _540
REMARK  223  A    between atoms: _543  and  _545
REMARK  224  A    between atoms: _545  and  _546
REMARK  225  A    between atoms: _545  and  _548
REMARK  226  A    between atoms: _548  and  _549
REMARK  227  A    between atoms: _552  and  _554
REMARK  228  A    between atoms: _554  and  _555
REMARK  229  A    between atoms: _554  and  _557
REMARK  230  A    between atoms: _557  and  _558
REMARK  231  A    between atoms: _558  and  _559
REMARK  232  A    between atoms: _564  and  _566
REMARK  233  A    between atoms: _566  and  _567
REMARK  234  A    between atoms: _566  and  _569
REMARK  235  A    between atoms: _569  and  _570
REMARK  236  A    between atoms: _573  and  _575
REMARK  237  A    between atoms: _575  and  _576
REMARK  238  A    between atoms: _575  and  _578
REMARK  239  A    between atoms: _578  and  _579
REMARK  240  A    between atoms: _579  and  _580
REMARK  241  A    between atoms: _582  and  _584
REMARK  242  A    between atoms: _584  and  _585
REMARK  243  A    between atoms: _584  and  _587
REMARK  244  A    between atoms: _587  and  _588
REMARK  245  A    between atoms: _591  and  _593
REMARK  246  A    between atoms: _593  and  _594
REMARK  247  A    between atoms: _593  and  _596
REMARK  248  A    between atoms: _596  and  _597
REMARK  249  A    between atoms: _600  and  _602
REMARK  250  A    between atoms: _602  and  _603
REMARK  251  A    between atoms: _602  and  _605
REMARK  252  A    between atoms: _605  and  _606
REMARK  253  A    between atoms: _609  and  _611
REMARK  254  A    between atoms: _611  and  _612
REMARK  255  A    between atoms: _614  and  _616
REMARK  256  A    between atoms: _616  and  _617
REMARK                            x       y       z     vdW  Elec       q    Type
REMARK                         _______ _______ _______ _____ _____    ______ ____
ROOT
ATOM      1  C   THR A   1      30.884  30.684  34.753  0.00  0.00    +0.241 C 
ATOM      2  O   THR A   1      31.416  29.729  34.179  0.00  0.00    -0.274 OA
ATOM      3  N   LEU A   2      30.602  31.832  34.135  0.00  0.00    -0.298 N 
ATOM      4  H   LEU A   2      30.145  32.594  34.676  0.00  0.00    +0.150 HD
ENDROOT
BRANCH   1   5
ATOM      5  CA  THR A   1      30.530  30.588  36.249  0.00  0.00    +0.172 C 
BRANCH   5   6
ATOM      6  N   THR A   1      30.954  31.770  36.987  0.00  0.00    -0.236 NA
ATOM      7  H   THR A   1      30.246  32.368  37.460  0.00  0.00    +0.142 HD
ENDBRANCH   5   6
BRANCH   5   8
ATOM      8  CB  THR A   1      29.051  30.369  36.396  0.00  0.00    +0.135 C 
ATOM      9  CG2 THR A   1      28.675  28.998  35.869  0.00  0.00    +0.034 C 
BRANCH   8  10
ATOM     10  OG1 THR A   1      28.708  30.466  37.781  0.00  0.00    -0.383 OA
ATOM     11  HG1 THR A   1      28.950  31.365  38.118  0.00  0.00    +0.210 HD
ENDBRANCH   8  10
ENDBRANCH   5   8
ENDBRANCH   1   5
BRANCH   3  12
ATOM     12  CA  LEU A   2      30.914  32.058  32.717  0.00  0.00    +0.137 C 
BRANCH  12  13
ATOM     13  C   LEU A   2      32.400  31.821  32.411  0.00  0.00    +0.227 C 
ATOM     14  O   LEU A   2      32.741  30.998  31.563  0.00  0.00    -0.286 OA
ENDBRANCH  12  13
BRANCH  12  15
ATOM     15  CB  LEU A   2      30.561  33.493  32.294  0.00  0.00    +0.028 C 
BRANCH  15  16
ATOM     16  CG  LEU A   2      29.239  33.861  31.611  0.00  0.00    +0.002 C 
ATOM     17  CD2 LEU A   2      28.195  34.270  32.626  0.00  0.00    +0.000 C 
ATOM     18  CD1 LEU A   2      28.747  32.691  30.768  0.00  0.00    +0.000 C 
ENDBRANCH  15  16
ENDBRANCH  12  15
ENDBRANCH   3  12
TORSDOF 8
REMARK  Name = ../refined-set-2016/1ork/1ork_pocket.pdb
REMARK  256 active torsions:
REMARK  status: ('A' for Active; 'I' for Inactive)
REMARK    1  A    between atoms: _1  and  _3
REMARK    2  A    between atoms: _3  and  _4
REMARK    3  A    between atoms: _7  and  _9
REMARK    4  A    between atoms: _9  and  _10
REMARK    5  A    between atoms: _9  and  _12
REMARK    6  A    between atoms: _15  and  _17
REMARK    7  A    between atoms: _17  and  _18
REMARK    8  A    between atoms: _17  and  _20
REMARK    9  A    between atoms: _20  and  _21
REMARK   10  A    between atoms: _24  and  _26
REMARK   11  A    between atoms: _26  and  _27
REMARK   12  A    between atoms: _30  and  _32
REMARK   13  A    between atoms: _32  and  _33
REMARK   14  A    between atoms: _32  and  _35
REMARK   15  A    between atoms: _35  and  _36
REMARK   16  A    between atoms: _41  and  _43
REMARK   17  A    between atoms: _43  and  _44
REMARK   18  A    between atoms: _43  and  _46
REMARK   19  A    between atoms: _46  and  _47
REMARK   20  A    between atoms: _50  and  _52
REMARK   21  A    between atoms: _52  and  _53
REMARK   22  A    between atoms: _52  and  _55
REMARK   23  A    between atoms: _55  and  _56
REMARK   24  A    between atoms: _61  and  _62
REMARK   25  A    between atoms: _64  and  _66
REMARK   26  A    between atoms: _66  and  _67
REMARK   27  A    between atoms: _66  and  _69
REMARK   28  A    between atoms: _69  and  _70
REMARK   29  A    between atoms: _72  and  _74
REMARK   30  A    between atoms: _74  and  _75
REMARK   31  A    between atoms: _74  and  _77
REMARK   32  A    between atoms: _77  and  _78
REMARK   33  A    between atoms: _81  and  _83
REMARK   34  A    between atoms: _83  and  _84
REMARK   35  A    between atoms: _83  and  _86
REMARK   36  A    between atoms: _86  and  _87
REMARK   37  A    between atoms: _93  and  _95
REMARK   38  A    between atoms: _95  and  _96
REMARK   39  A    between atoms: _95  and  _98
REMARK   40  A    between atoms: _98  and  _99
REMARK   41  A    between atoms: _102  and  _104
REMARK   42  A    between atoms: _104  and  _105
REMARK   43  A    between atoms: _104  and  _107
REMARK   44  A    between atoms: _107  and  _108
REMARK   45  A    between atoms: _113  and  _115
REMARK   46  A    between atoms: _115  and  _116
REMARK   47  A    between atoms: _115  and  _118
REMARK   48  A    between atoms: _118  and  _119
REMARK   49  A    between atoms: _124  and  _126
REMARK   50  A    between atoms: _126  and  _127
REMARK   51  A    between atoms: _130  and  _132
REMARK   52  A    between atoms: _132  and  _133
REMARK   53  A    between atoms: _132  and  _135
REMARK   54  A    between atoms: _135  and  _136
REMARK   55  A    between atoms: _136  and  _137
REMARK   56  A    between atoms: _139  and  _141
REMARK   57  A    between atoms: _141  and  _142
REMARK   58  A    between atoms: _141  and  _144
REMARK   59  A    between atoms: _144  and  _145
REMARK   60  A    between atoms: _147  and  _149
REMARK   61  A    between atoms: _149  and  _150
REMARK   62  A    between atoms: _149  and  _152
REMARK   63  A    between atoms: _152  and  _153
REMARK   64  A    between atoms: _159  and  _161
REMARK   65  A    between atoms: _161  and  _162
REMARK   66  A    between atoms: _161  and  _164
REMARK   67  A    between atoms: _164  and  _165
REMARK   68  A    between atoms: _165  and  _166
REMARK   69  A    between atoms: _166  and  _167
REMARK   70  A    between atoms: _176  and  _178
REMARK   71  A    between atoms: _178  and  _179
REMARK   72  A    between atoms: _178  and  _181
REMARK   73  A    between atoms: _181  and  _182
REMARK   74  A    between atoms: _185  and  _187
REMARK   75  A    between atoms: _187  and  _188
REMARK   76  A    between atoms: _187  and  _190
REMARK   77  A    between atoms: _190  and  _191
REMARK   78  A    between atoms: _196  and  _198
REMARK   79  A    between atoms: _198  and  _199
REMARK   80  A    between atoms: _198  and  _201
REMARK   81  A    between atoms: _201  and  _202
REMARK   82  A    between atoms: _205  and  _207
REMARK   83  A    between atoms: _207  and  _208
REMARK   84  A    between atoms: _210  and  _212
REMARK   85  A    between atoms: _212  and  _213
REMARK   86  A    between atoms: _212  and  _215
REMARK   87  A    between atoms: _215  and  _216
REMARK   88  A    between atoms: _219  and  _221
REMARK   89  A    between atoms: _221  and  _222
REMARK   90  A    between atoms: _221  and  _224
REMARK   91  A    between atoms: _224  and  _225
REMARK   92  A    between atoms: _225  and  _226
REMARK   93  A    between atoms: _226  and  _227
REMARK   94  A    between atoms: _237  and  _238
REMARK   95  A    between atoms: _243  and  _245
REMARK   96  A    between atoms: _245  and  _246
REMARK   97  A    between atoms: _245  and  _248
REMARK   98  A    between atoms: _248  and  _249
REMARK   99  A    between atoms: _252  and  _254
REMARK  100  A    between atoms: _254  and  _255
REMARK  101  A    between atoms: _254  and  _257
REMARK  102  A    between atoms: _257  and  _258
REMARK  103  A    between atoms: _258  and  _259
REMARK  104  A    between atoms: _259  and  _260
REMARK  105  A    between atoms: _260  and  _261
REMARK  106  A    between atoms: _265  and  _267
REMARK  107  A    between atoms: _267  and  _268
REMARK  108  A    between atoms: _267  and  _270
REMARK  109  A    between atoms: _270  and  _271
REMARK  110  A    between atoms: _271  and  _272
REMARK  111  A    between atoms: _277  and  _279
REMARK  112  A    between atoms: _279  and  _280
REMARK  113  A    between atoms: _279  and  _282
REMARK  114  A    between atoms: _282  and  _283
REMARK  115  A    between atoms: _288  and  _289
REMARK  116  A    between atoms: _291  and  _293
REMARK  117  A    between atoms: _293  and  _294
REMARK  118  A    between atoms: _293  and  _296
REMARK  119  A    between atoms: _296  and  _297
REMARK  120  A    between atoms: _300  and  _302
REMARK  121  A    between atoms: _302  and  _303
REMARK  122  A    between atoms: _302  and  _305
REMARK  123  A    between atoms: _305  and  _306
REMARK  124  A    between atoms: _309  and  _311
REMARK  125  A    between atoms: _311  and  _312
REMARK  126  A    between atoms: _311  and  _314
REMARK  127  A    between atoms: _317  and  _319
REMARK  128  A    between atoms: _319  and  _320
REMARK  129  A    between atoms: _319  and  _322
REMARK  130  A    between atoms: _322  and  _323
REMARK  131  A    between atoms: _323  and  _324
REMARK  132  A    between atoms: _327  and  _329
REMARK  133  A    between atoms: _329  and  _330
REMARK  134  A    between atoms: _329  and  _332
REMARK  135  A    between atoms: _332  and  _333
REMARK  136  A    between atoms: _333  and  _334
REMARK  137  A    between atoms: _339  and  _341
REMARK  138  A    between atoms: _341  and  _342
REMARK  139  A    between atoms: _341  and  _344
REMARK  140  A    between atoms: _344  and  _345
REMARK  141  A    between atoms: _348  and  _350
REMARK  142  A    between atoms: _350  and  _351
REMARK  143  A    between atoms: _353  and  _355
REMARK  144  A    between atoms: _355  and  _356
REMARK  145  A    between atoms: _355  and  _358
REMARK  146  A    between atoms: _358  and  _359
REMARK  147  A    between atoms: _362  and  _364
REMARK  148  A    between atoms: _364  and  _365
REMARK  149  A    between atoms: _368  and  _370
REMARK  150  A    between atoms: _370  and  _371
REMARK  151  A    between atoms: _370  and  _373
REMARK  152  A    between atoms: _373  and  _374
REMARK  153  A    between atoms: _377  and  _379
REMARK  154  A    between atoms: _379  and  _380
REMARK  155  A    between atoms: _379  and  _382
REMARK  156  A    between atoms: _382  and  _383
REMARK  157  A    between atoms: _385  and  _387
REMARK  158  A    between atoms: _387  and  _388
REMARK  159  A    between atoms: _391  and  _393
REMARK  160  A    between atoms: _393  and  _394
REMARK  161  A    between atoms: _393  and  _396
REMARK  162  A    between atoms: _399  and  _401
REMARK  163  A    between atoms: _401  and  _402
REMARK  164  A    between atoms: _401  and  _404
REMARK  165  A    between atoms: _404  and  _405
REMARK  166  A    between atoms: _407  and  _409
REMARK  167  A    between atoms: _409  and  _410
REMARK  168  A    between atoms: _409  and  _412
REMARK  169  A    between atoms: _412  and  _413
REMARK  170  A    between atoms: _418  and  _420
REMARK  171  A    between atoms: _420  and  _421
REMARK  172  A    between atoms: _420  and  _423
REMARK  173  A    between atoms: _423  and  _424
REMARK  174  A    between atoms: _427  and  _429
REMARK  175  A    between atoms: _429  and  _430
REMARK  176  A    between atoms: _429  and  _432
REMARK  177  A    between atoms: _432  and  _433
REMARK  178  A    between atoms: _436  and  _438
REMARK  179  A    between atoms: _438  and  _439
REMARK  180  A    between atoms: _441  and  _443
REMARK  181  A    between atoms: _443  and  _444
REMARK  182  A    between atoms: _447  and  _449
REMARK  183  A    between atoms: _449  and  _450
REMARK  184  A    between atoms: _449  and  _452
REMARK  185  A    between atoms: _455  and  _457
REMARK  186  A    between atoms: _457  and  _458
REMARK  187  A    between atoms: _457  and  _460
REMARK  188  A    between atoms: _460  and  _461
REMARK  189  A    between atoms: _464  and  _466
REMARK  190  A    between atoms: _466  and  _467
REMARK  191  A    between atoms: _466  and  _469
REMARK  192  A    between atoms: _469  and  _470
REMARK  193  A    between atoms: _470  and  _471
REMARK  194  A    between atoms: _474  and  _476
REMARK  195  A    between atoms: _476  and  _477
REMARK  196  A    between atoms: _476  and  _479
REMARK  197  A    between atoms: _479  and  _480
REMARK  198  A    between atoms: _480  and  _481
REMARK  199  A    between atoms: _486  and  _488
REMARK  200  A    between atoms: _488  and  _489
REMARK  201  A    between atoms: _488  and  _491
REMARK  202  A    between atoms: _491  and  _492
REMARK  203  A    between atoms: _492  and  _493
REMARK  204  A    between atoms: _498  and  _500
REMARK  205  A    between atoms: _500  and  _501
REMARK  206  A    between atoms: _500  and  _503
REMARK  207  A    between atoms: _503  and  _504
REMARK  208  A    between atoms: _504  and  _505
REMARK  209  A    between atoms: _508  and  _510
REMARK  210  A    between atoms: _510  and  _511
REMARK  211  A    between atoms: _510  and  _513
REMARK  212  A    between atoms: _513  and  _514
REMARK  213  A    between atoms: _519  and  _521
REMARK  214  A    between atoms: _521  and  _522
REMARK  215  A    between atoms: _521  and  _524
REMARK  216  A    between atoms: _524  and  _525
REMARK  217  A    between atoms: _528  and  _530
REMARK  218  A    between atoms: _530  and  _531
REMARK  219  A    between atoms: _530  and  _533
REMARK  220  A    between atoms: _533  and  _534
REMARK  221  A    between atoms: _537  and  _539
REMARK  222  A    between atoms: _539  and  _540
REMARK  223  A    between atoms: _543  and  _545
REMARK  224  A    between atoms: _545  and  _546
REMARK  225  A    between atoms: _545  and  _548
REMARK  226  A    between atoms: _548  and  _549
REMARK  227  A    between atoms: _552  and  _554
REMARK  228  A    between atoms: _554  and  _555
REMARK  229  A    between atoms: _554  and  _557
REMARK  230  A    between atoms: _557  and  _558
REMARK  231  A    between atoms: _558  and  _559
REMARK  232  A    between atoms: _564  and  _566
REMARK  233  A    between atoms: _566  and  _567
REMARK  234  A    between atoms: _566  and  _569
REMARK  235  A    between atoms: _569  and  _570
REMARK  236  A    between atoms: _573  and  _575
REMARK  237  A    between atoms: _575  and  _576
REMARK  238  A    between atoms: _575  and  _578
REMARK  239  A    between atoms: _578  and  _579
REMARK  240  A    between atoms: _579  and  _580
REMARK  241  A    between atoms: _582  and  _584
REMARK  242  A    between atoms: _584  and  _585
REMARK  243  A    between atoms: _584  and  _587
REMARK  244  A    between atoms: _587  and  _588
REMARK  245  A    between atoms: _591  and  _593
REMARK  246  A    between atoms: _593  and  _594
REMARK  247  A    between atoms: _593  and  _596
REMARK  248  A    between atoms: _596  and  _597
REMARK  249  A    between atoms: _600  and  _602
REMARK  250  A    between atoms: _602  and  _603
REMARK  251  A    between atoms: _602  and  _605
REMARK  252  A    between atoms: _605  and  _606
REMARK  253  A    between atoms: _609  and  _611
REMARK  254  A    between atoms: _611  and  _612
REMARK  255  A    between atoms: _614  and  _616
REMARK  256  A    between atoms: _616  and  _617
REMARK                            x       y       z     vdW  Elec       q    Type
REMARK                         _______ _______ _______ _____ _____    ______ ____
ROOT
ATOM      1  CA  GLN A   6      31.742  43.919  29.958  0.00  0.00    +0.149 C 
ENDROOT
BRANCH   1   2
ATOM      2  C   GLN A   6      32.013  44.271  28.487  0.00  0.00    +0.241 C 
ATOM      3  N   GLN A   7      33.190  43.887  27.996  0.00  0.00    -0.297 N 
ATOM      4  H   GLN A   7      33.843  43.372  28.620  0.00  0.00    +0.150 HD
ATOM      5  O   GLN A   6      31.143  44.813  27.797  0.00  0.00    -0.273 OA
BRANCH   3   6
ATOM      6  CA  GLN A   7      33.607  44.156  26.619  0.00  0.00    +0.149 C 
BRANCH   6   7
ATOM      7  C   GLN A   7      32.630  43.644  25.563  0.00  0.00    +0.241 C 
ATOM      8  N   GLU A   8      32.333  42.351  25.605  0.00  0.00    -0.297 N 
ATOM      9  H   GLU A   8      32.754  41.757  26.347  0.00  0.00    +0.150 HD
ATOM     10  O   GLN A   7      32.131  44.415  24.742  0.00  0.00    -0.273 OA
BRANCH   8  11
ATOM     11  CA  GLU A   8      31.429  41.745  24.634  0.00  0.00    +0.149 C 
BRANCH  11  12
ATOM     12  C   GLU A   8      30.035  42.347  24.710  0.00  0.00    +0.241 C 
ATOM     13  N   HIS A   9      29.721  42.989  25.831  0.00  0.00    -0.297 N 
ATOM     14  H   HIS A   9      30.411  43.046  26.607  0.00  0.00    +0.150 HD
ATOM     15  O   GLU A   8      29.244  42.208  23.779  0.00  0.00    -0.273 OA
BRANCH  13  16
ATOM     16  CA  HIS A   9      28.417  43.610  25.975  0.00  0.00    +0.155 C 
BRANCH  16  17
ATOM     17  C   HIS A   9      28.392  44.855  25.124  0.00  0.00    +0.241 C 
ATOM     18  N   THR A  10      29.307  45.774  25.414  0.00  0.00    -0.296 N 
ATOM     19  H   THR A  10      29.977  45.595  26.189  0.00  0.00    +0.150 HD
ATOM     20  O   HIS A   9      27.548  44.993  24.247  0.00  0.00    -0.273 OA
BRANCH  18  21
ATOM     21  CA  THR A  10      29.395  47.026  24.674  0.00  0.00    +0.164 C 
BRANCH  21  22
ATOM     22  C   THR A  10      29.533  46.799  23.160  0.00  0.00    +0.229 C 
ATOM     23  O   THR A  10      29.029  47.590  22.357  0.00  0.00    -0.286 OA
ENDBRANCH  21  22
BRANCH  21  24
ATOM     24  CB  THR A  10      30.556  47.900  25.191  0.00  0.00    +0.136 C 
ATOM     25  CG2 THR A  10      30.178  48.571  26.515  0.00  0.00    +0.034 C 
BRANCH  24  26
ATOM     26  OG1 THR A  10      31.719  47.087  25.380  0.00  0.00    -0.382 OA
ATOM     27  HG1 THR A  10      31.520  46.377  26.041  0.00  0.00    +0.210 HD
ENDBRANCH  24  26
ENDBRANCH  21  24
ENDBRANCH  18  21
ENDBRANCH  16  17
BRANCH  16  28
ATOM     28  CB  HIS A   9      28.124  44.002  27.419  0.00  0.00    +0.076 C 
BRANCH  28  29
ATOM     29  CG  HIS A   9      26.792  44.659  27.591  0.00  0.00    +0.082 A 
ATOM     30  CD2 HIS A   9      26.455  45.961  27.763  0.00  0.00    +0.115 A 
ATOM     31  NE2 HIS A   9      25.079  46.023  27.793  0.00  0.00    -0.221 NA
ATOM     32  CE1 HIS A   9      24.595  44.801  27.645  0.00  0.00    +0.199 A 
ATOM     33  ND1 HIS A   9      25.604  43.963  27.525  0.00  0.00    -0.227 NA
ENDBRANCH  28  29
ENDBRANCH  16  28
ENDBRANCH  13  16
ENDBRANCH  11  12
BRANCH  11  34
ATOM     34  CB  GLU A   8      31.351  40.234  24.840  0.00  0.00    +0.041 C 
BRANCH  34  35
ATOM     35  CG  GLU A   8      30.720  39.474  23.675  0.00  0.00    +0.116 C 
BRANCH  35  36
ATOM     36  CD  GLU A   8      31.651  39.295  22.474  0.00  0.00    +0.365 C 
ATOM     37  OE2 GLU A   8      32.776  39.853  22.465  0.00  0.00    -0.246 OA
ATOM     38  OE1 GLU A   8      31.255  38.574  21.532  0.00  0.00    -0.246 OA
ENDBRANCH  35  36
ENDBRANCH  34  35
ENDBRANCH  11  34
ENDBRANCH   8  11
ENDBRANCH   6   7
BRANCH   6  39
ATOM     39  CB  GLN A   7      35.003  43.573  26.347  0.00  0.00    +0.039 C 
BRANCH  39  40
ATOM     40  CG  GLN A   7      36.147  44.282  27.073  0.00  0.00    +0.087 C 
BRANCH  40  41
ATOM     41  CD  GLN A   7      37.518  43.690  26.759  0.00  0.00    +0.219 C 
ATOM     42  NE2 GLN A   7      38.557  44.512  26.881  0.00  0.00    -0.329 N 
ATOM     43 HE21 GLN A   7      38.408  45.497  27.180  0.00  0.00    +0.145 HD
ATOM     44 HE22 GLN A   7      39.518  44.169  26.678  0.00  0.00    +0.145 HD
ATOM     45  OE1 GLN A   7      37.643  42.513  26.408  0.00  0.00    -0.275 OA
ENDBRANCH  40  41
ENDBRANCH  39  40
ENDBRANCH   6  39
ENDBRANCH   3   6
ENDBRANCH   1   2
BRANCH   1  47
ATOM     46  C   GLU A   5      30.639  41.776  29.660  0.00  0.00    +0.241 C 
ATOM     47  N   GLN A   6      31.685  42.473  30.085  0.00  0.00    -0.297 N 
ATOM     48  H   GLN A   6      32.485  41.971  30.520  0.00  0.00    +0.150 HD
ATOM     49  O   GLU A   5      29.626  42.303  29.215  0.00  0.00    -0.273 OA
BRANCH  46  50
ATOM     50  CA  GLU A   5      30.704  40.267  29.819  0.00  0.00    +0.149 C 
BRANCH  50  52
ATOM     51  C   LEU A   4      32.923  40.127  28.809  0.00  0.00    +0.241 C 
ATOM     52  N   GLU A   5      32.070  39.756  29.760  0.00  0.00    -0.297 N 
ATOM     53  H   GLU A   5      32.386  39.080  30.485  0.00  0.00    +0.150 HD
ATOM     54  O   LEU A   4      32.650  40.968  27.955  0.00  0.00    -0.273 OA
BRANCH  51  55
ATOM     55  CA  LEU A   4      34.321  39.527  28.861  0.00  0.00    +0.149 C 
BRANCH  55  57
ATOM     56  C   VAL A   3      35.107  41.288  30.339  0.00  0.00    +0.241 C 
ATOM     57  N   LEU A   4      35.022  39.991  30.050  0.00  0.00    -0.297 N 
ATOM     58  H   LEU A   4      35.464  39.297  30.685  0.00  0.00    +0.150 HD
ATOM     59  O   VAL A   3      34.613  42.162  29.630  0.00  0.00    -0.273 OA
BRANCH  56  60
ATOM     60  CA  VAL A   3      35.846  41.666  31.620  0.00  0.00    +0.149 C 
BRANCH  60  62
ATOM     61  C   ALA A   2      34.067  40.921  33.117  0.00  0.00    +0.241 C 
ATOM     62  N   VAL A   3      35.343  40.891  32.743  0.00  0.00    -0.297 N 
ATOM     63  H   VAL A   3      36.006  40.291  33.274  0.00  0.00    +0.150 HD
ATOM     64  O   ALA A   2      33.215  41.623  32.576  0.00  0.00    -0.273 OA
BRANCH  61  65
ATOM     65  CA  ALA A   2      33.705  40.037  34.292  0.00  0.00    +0.149 C 
ATOM     66  CB  ALA A   2      34.325  40.593  35.569  0.00  0.00    +0.031 C 
BRANCH  65  68
ATOM     67  C   GLY A   1      33.689  37.938  33.043  0.00  0.00    +0.240 C 
ATOM     68  N   ALA A   2      34.167  38.673  34.044  0.00  0.00    -0.297 N 
ATOM     69  H   ALA A   2      34.891  38.264  34.669  0.00  0.00    +0.150 HD
ATOM     70  O   GLY A   1      32.819  38.349  32.288  0.00  0.00    -0.274 OA
BRANCH  67  71
ATOM     71  CA  GLY A   1      34.233  36.525  32.871  0.00  0.00    +0.169 C 
BRANCH  71  72
ATOM     72  N   GLY A   1      35.663  36.378  33.085  0.00  0.00    -0.236 NA
ATOM     73  H   GLY A   1      36.007  35.682  33.777  0.00  0.00    +0.142 HD
ENDBRANCH  71  72
ENDBRANCH  67  71
ENDBRANCH  65  68
ENDBRANCH  61  65
ENDBRANCH  60  62
BRANCH  60  74
ATOM     74  CB  VAL A   3      37.350  41.440  31.422  0.00  0.00    +0.027 C 
ATOM     75  CG2 VAL A   3      38.109  41.974  32.621  0.00  0.00    +0.002 C 
ATOM     76  CG1 VAL A   3      37.825  42.123  30.143  0.00  0.00    +0.002 C 
ENDBRANCH  60  74
ENDBRANCH  56  60
ENDBRANCH  55  57
BRANCH  55  77
ATOM     77  CB  LEU A   4      34.249  38.002  28.821  0.00  0.00    +0.029 C 
BRANCH  77  78
ATOM     78  CG  LEU A   4      35.551  37.301  28.427  0.00  0.00    +0.002 C 
ATOM     79  CD2 LEU A   4      35.445  35.833  28.710  0.00  0.00    +0.000 C 
ATOM     80  CD1 LEU A   4      35.861  37.531  26.960  0.00  0.00    +0.000 C 
ENDBRANCH  77  78
ENDBRANCH  55  77
ENDBRANCH  51  55
ENDBRANCH  50  52
BRANCH  50  81
ATOM     81  CB  GLU A   5      30.051  39.879  31.135  0.00  0.00    +0.041 C 
BRANCH  81  82
ATOM     82  CG  GLU A   5      29.583  38.460  31.182  0.00  0.00    +0.116 C 
BRANCH  82  83
ATOM     83  CD  GLU A   5      28.129  38.327  30.818  0.00  0.00    +0.365 C 
ATOM     84  OE2 GLU A   5      27.367  39.287  31.039  0.00  0.00    -0.246 OA
ATOM     85  OE1 GLU A   5      27.737  37.253  30.329  0.00  0.00    -0.246 OA
ENDBRANCH  82  83
ENDBRANCH  81  82
ENDBRANCH  50  81
ENDBRANCH  46  50
ENDBRANCH   1  47
BRANCH   1  86
ATOM     86  CB  GLN A   6      32.852  44.459  30.856  0.00  0.00    +0.039 C 
BRANCH  86  87
ATOM     87  CG  GLN A   6      33.021  45.965  30.866  0.00  0.00    +0.087 C 
BRANCH  87  88
ATOM     88  CD  GLN A   6      34.160  46.400  31.787  0.00  0.00    +0.219 C 
ATOM     89  OE1 GLN A   6      34.485  45.713  32.761  0.00  0.00    -0.275 OA
ATOM     90  NE2 GLN A   6      34.782  47.530  31.472  0.00  0.00    -0.329 N 
ATOM     91 HE21 GLN A   6      35.575  47.867  32.054  0.00  0.00    +0.145 HD
ATOM     92 HE22 GLN A   6      34.476  48.078  30.643  0.00  0.00    +0.145 HD
ENDBRANCH  87  88
ENDBRANCH  86  87
ENDBRANCH   1  86
TORSDOF 39
REMARK  Name = ../refined-set-2016/1ork/1ork_pocket.pdb
REMARK  256 active torsions:
REMARK  status: ('A' for Active; 'I' for Inactive)
REMARK    1  A    between atoms: _1  and  _3
REMARK    2  A    between atoms: _3  and  _4
REMARK    3  A    between atoms: _7  and  _9
REMARK    4  A    between atoms: _9  and  _10
REMARK    5  A    between atoms: _9  and  _12
REMARK    6  A    between atoms: _15  and  _17
REMARK    7  A    between atoms: _17  and  _18
REMARK    8  A    between atoms: _17  and  _20
REMARK    9  A    between atoms: _20  and  _21
REMARK   10  A    between atoms: _24  and  _26
REMARK   11  A    between atoms: _26  and  _27
REMARK   12  A    between atoms: _30  and  _32
REMARK   13  A    between atoms: _32  and  _33
REMARK   14  A    between atoms: _32  and  _35
REMARK   15  A    between atoms: _35  and  _36
REMARK   16  A    between atoms: _41  and  _43
REMARK   17  A    between atoms: _43  and  _44
REMARK   18  A    between atoms: _43  and  _46
REMARK   19  A    between atoms: _46  and  _47
REMARK   20  A    between atoms: _50  and  _52
REMARK   21  A    between atoms: _52  and  _53
REMARK   22  A    between atoms: _52  and  _55
REMARK   23  A    between atoms: _55  and  _56
REMARK   24  A    between atoms: _61  and  _62
REMARK   25  A    between atoms: _64  and  _66
REMARK   26  A    between atoms: _66  and  _67
REMARK   27  A    between atoms: _66  and  _69
REMARK   28  A    between atoms: _69  and  _70
REMARK   29  A    between atoms: _72  and  _74
REMARK   30  A    between atoms: _74  and  _75
REMARK   31  A    between atoms: _74  and  _77
REMARK   32  A    between atoms: _77  and  _78
REMARK   33  A    between atoms: _81  and  _83
REMARK   34  A    between atoms: _83  and  _84
REMARK   35  A    between atoms: _83  and  _86
REMARK   36  A    between atoms: _86  and  _87
REMARK   37  A    between atoms: _93  and  _95
REMARK   38  A    between atoms: _95  and  _96
REMARK   39  A    between atoms: _95  and  _98
REMARK   40  A    between atoms: _98  and  _99
REMARK   41  A    between atoms: _102  and  _104
REMARK   42  A    between atoms: _104  and  _105
REMARK   43  A    between atoms: _104  and  _107
REMARK   44  A    between atoms: _107  and  _108
REMARK   45  A    between atoms: _113  and  _115
REMARK   46  A    between atoms: _115  and  _116
REMARK   47  A    between atoms: _115  and  _118
REMARK   48  A    between atoms: _118  and  _119
REMARK   49  A    between atoms: _124  and  _126
REMARK   50  A    between atoms: _126  and  _127
REMARK   51  A    between atoms: _130  and  _132
REMARK   52  A    between atoms: _132  and  _133
REMARK   53  A    between atoms: _132  and  _135
REMARK   54  A    between atoms: _135  and  _136
REMARK   55  A    between atoms: _136  and  _137
REMARK   56  A    between atoms: _139  and  _141
REMARK   57  A    between atoms: _141  and  _142
REMARK   58  A    between atoms: _141  and  _144
REMARK   59  A    between atoms: _144  and  _145
REMARK   60  A    between atoms: _147  and  _149
REMARK   61  A    between atoms: _149  and  _150
REMARK   62  A    between atoms: _149  and  _152
REMARK   63  A    between atoms: _152  and  _153
REMARK   64  A    between atoms: _159  and  _161
REMARK   65  A    between atoms: _161  and  _162
REMARK   66  A    between atoms: _161  and  _164
REMARK   67  A    between atoms: _164  and  _165
REMARK   68  A    between atoms: _165  and  _166
REMARK   69  A    between atoms: _166  and  _167
REMARK   70  A    between atoms: _176  and  _178
REMARK   71  A    between atoms: _178  and  _179
REMARK   72  A    between atoms: _178  and  _181
REMARK   73  A    between atoms: _181  and  _182
REMARK   74  A    between atoms: _185  and  _187
REMARK   75  A    between atoms: _187  and  _188
REMARK   76  A    between atoms: _187  and  _190
REMARK   77  A    between atoms: _190  and  _191
REMARK   78  A    between atoms: _196  and  _198
REMARK   79  A    between atoms: _198  and  _199
REMARK   80  A    between atoms: _198  and  _201
REMARK   81  A    between atoms: _201  and  _202
REMARK   82  A    between atoms: _205  and  _207
REMARK   83  A    between atoms: _207  and  _208
REMARK   84  A    between atoms: _210  and  _212
REMARK   85  A    between atoms: _212  and  _213
REMARK   86  A    between atoms: _212  and  _215
REMARK   87  A    between atoms: _215  and  _216
REMARK   88  A    between atoms: _219  and  _221
REMARK   89  A    between atoms: _221  and  _222
REMARK   90  A    between atoms: _221  and  _224
REMARK   91  A    between atoms: _224  and  _225
REMARK   92  A    between atoms: _225  and  _226
REMARK   93  A    between atoms: _226  and  _227
REMARK   94  A    between atoms: _237  and  _238
REMARK   95  A    between atoms: _243  and  _245
REMARK   96  A    between atoms: _245  and  _246
REMARK   97  A    between atoms: _245  and  _248
REMARK   98  A    between atoms: _248  and  _249
REMARK   99  A    between atoms: _252  and  _254
REMARK  100  A    between atoms: _254  and  _255
REMARK  101  A    between atoms: _254  and  _257
REMARK  102  A    between atoms: _257  and  _258
REMARK  103  A    between atoms: _258  and  _259
REMARK  104  A    between atoms: _259  and  _260
REMARK  105  A    between atoms: _260  and  _261
REMARK  106  A    between atoms: _265  and  _267
REMARK  107  A    between atoms: _267  and  _268
REMARK  108  A    between atoms: _267  and  _270
REMARK  109  A    between atoms: _270  and  _271
REMARK  110  A    between atoms: _271  and  _272
REMARK  111  A    between atoms: _277  and  _279
REMARK  112  A    between atoms: _279  and  _280
REMARK  113  A    between atoms: _279  and  _282
REMARK  114  A    between atoms: _282  and  _283
REMARK  115  A    between atoms: _288  and  _289
REMARK  116  A    between atoms: _291  and  _293
REMARK  117  A    between atoms: _293  and  _294
REMARK  118  A    between atoms: _293  and  _296
REMARK  119  A    between atoms: _296  and  _297
REMARK  120  A    between atoms: _300  and  _302
REMARK  121  A    between atoms: _302  and  _303
REMARK  122  A    between atoms: _302  and  _305
REMARK  123  A    between atoms: _305  and  _306
REMARK  124  A    between atoms: _309  and  _311
REMARK  125  A    between atoms: _311  and  _312
REMARK  126  A    between atoms: _311  and  _314
REMARK  127  A    between atoms: _317  and  _319
REMARK  128  A    between atoms: _319  and  _320
REMARK  129  A    between atoms: _319  and  _322
REMARK  130  A    between atoms: _322  and  _323
REMARK  131  A    between atoms: _323  and  _324
REMARK  132  A    between atoms: _327  and  _329
REMARK  133  A    between atoms: _329  and  _330
REMARK  134  A    between atoms: _329  and  _332
REMARK  135  A    between atoms: _332  and  _333
REMARK  136  A    between atoms: _333  and  _334
REMARK  137  A    between atoms: _339  and  _341
REMARK  138  A    between atoms: _341  and  _342
REMARK  139  A    between atoms: _341  and  _344
REMARK  140  A    between atoms: _344  and  _345
REMARK  141  A    between atoms: _348  and  _350
REMARK  142  A    between atoms: _350  and  _351
REMARK  143  A    between atoms: _353  and  _355
REMARK  144  A    between atoms: _355  and  _356
REMARK  145  A    between atoms: _355  and  _358
REMARK  146  A    between atoms: _358  and  _359
REMARK  147  A    between atoms: _362  and  _364
REMARK  148  A    between atoms: _364  and  _365
REMARK  149  A    between atoms: _368  and  _370
REMARK  150  A    between atoms: _370  and  _371
REMARK  151  A    between atoms: _370  and  _373
REMARK  152  A    between atoms: _373  and  _374
REMARK  153  A    between atoms: _377  and  _379
REMARK  154  A    between atoms: _379  and  _380
REMARK  155  A    between atoms: _379  and  _382
REMARK  156  A    between atoms: _382  and  _383
REMARK  157  A    between atoms: _385  and  _387
REMARK  158  A    between atoms: _387  and  _388
REMARK  159  A    between atoms: _391  and  _393
REMARK  160  A    between atoms: _393  and  _394
REMARK  161  A    between atoms: _393  and  _396
REMARK  162  A    between atoms: _399  and  _401
REMARK  163  A    between atoms: _401  and  _402
REMARK  164  A    between atoms: _401  and  _404
REMARK  165  A    between atoms: _404  and  _405
REMARK  166  A    between atoms: _407  and  _409
REMARK  167  A    between atoms: _409  and  _410
REMARK  168  A    between atoms: _409  and  _412
REMARK  169  A    between atoms: _412  and  _413
REMARK  170  A    between atoms: _418  and  _420
REMARK  171  A    between atoms: _420  and  _421
REMARK  172  A    between atoms: _420  and  _423
REMARK  173  A    between atoms: _423  and  _424
REMARK  174  A    between atoms: _427  and  _429
REMARK  175  A    between atoms: _429  and  _430
REMARK  176  A    between atoms: _429  and  _432
REMARK  177  A    between atoms: _432  and  _433
REMARK  178  A    between atoms: _436  and  _438
REMARK  179  A    between atoms: _438  and  _439
REMARK  180  A    between atoms: _441  and  _443
REMARK  181  A    between atoms: _443  and  _444
REMARK  182  A    between atoms: _447  and  _449
REMARK  183  A    between atoms: _449  and  _450
REMARK  184  A    between atoms: _449  and  _452
REMARK  185  A    between atoms: _455  and  _457
REMARK  186  A    between atoms: _457  and  _458
REMARK  187  A    between atoms: _457  and  _460
REMARK  188  A    between atoms: _460  and  _461
REMARK  189  A    between atoms: _464  and  _466
REMARK  190  A    between atoms: _466  and  _467
REMARK  191  A    between atoms: _466  and  _469
REMARK  192  A    between atoms: _469  and  _470
REMARK  193  A    between atoms: _470  and  _471
REMARK  194  A    between atoms: _474  and  _476
REMARK  195  A    between atoms: _476  and  _477
REMARK  196  A    between atoms: _476  and  _479
REMARK  197  A    between atoms: _479  and  _480
REMARK  198  A    between atoms: _480  and  _481
REMARK  199  A    between atoms: _486  and  _488
REMARK  200  A    between atoms: _488  and  _489
REMARK  201  A    between atoms: _488  and  _491
REMARK  202  A    between atoms: _491  and  _492
REMARK  203  A    between atoms: _492  and  _493
REMARK  204  A    between atoms: _498  and  _500
REMARK  205  A    between atoms: _500  and  _501
REMARK  206  A    between atoms: _500  and  _503
REMARK  207  A    between atoms: _503  and  _504
REMARK  208  A    between atoms: _504  and  _505
REMARK  209  A    between atoms: _508  and  _510
REMARK  210  A    between atoms: _510  and  _511
REMARK  211  A    between atoms: _510  and  _513
REMARK  212  A    between atoms: _513  and  _514
REMARK  213  A    between atoms: _519  and  _521
REMARK  214  A    between atoms: _521  and  _522
REMARK  215  A    between atoms: _521  and  _524
REMARK  216  A    between atoms: _524  and  _525
REMARK  217  A    between atoms: _528  and  _530
REMARK  218  A    between atoms: _530  and  _531
REMARK  219  A    between atoms: _530  and  _533
REMARK  220  A    between atoms: _533  and  _534
REMARK  221  A    between atoms: _537  and  _539
REMARK  222  A    between atoms: _539  and  _540
REMARK  223  A    between atoms: _543  and  _545
REMARK  224  A    between atoms: _545  and  _546
REMARK  225  A    between atoms: _545  and  _548
REMARK  226  A    between atoms: _548  and  _549
REMARK  227  A    between atoms: _552  and  _554
REMARK  228  A    between atoms: _554  and  _555
REMARK  229  A    between atoms: _554  and  _557
REMARK  230  A    between atoms: _557  and  _558
REMARK  231  A    between atoms: _558  and  _559
REMARK  232  A    between atoms: _564  and  _566
REMARK  233  A    between atoms: _566  and  _567
REMARK  234  A    between atoms: _566  and  _569
REMARK  235  A    between atoms: _569  and  _570
REMARK  236  A    between atoms: _573  and  _575
REMARK  237  A    between atoms: _575  and  _576
REMARK  238  A    between atoms: _575  and  _578
REMARK  239  A    between atoms: _578  and  _579
REMARK  240  A    between atoms: _579  and  _580
REMARK  241  A    between atoms: _582  and  _584
REMARK  242  A    between atoms: _584  and  _585
REMARK  243  A    between atoms: _584  and  _587
REMARK  244  A    between atoms: _587  and  _588
REMARK  245  A    between atoms: _591  and  _593
REMARK  246  A    between atoms: _593  and  _594
REMARK  247  A    between atoms: _593  and  _596
REMARK  248  A    between atoms: _596  and  _597
REMARK  249  A    between atoms: _600  and  _602
REMARK  250  A    between atoms: _602  and  _603
REMARK  251  A    between atoms: _602  and  _605
REMARK  252  A    between atoms: _605  and  _606
REMARK  253  A    between atoms: _609  and  _611
REMARK  254  A    between atoms: _611  and  _612
REMARK  255  A    between atoms: _614  and  _616
REMARK  256  A    between atoms: _616  and  _617
REMARK                            x       y       z     vdW  Elec       q    Type
REMARK                         _______ _______ _______ _____ _____    ______ ____
ROOT
ATOM      1  CA  LEU A   1      15.553  44.616  37.462  0.00  0.00    +0.133 C 
ENDROOT
BRANCH   1   2
ATOM      2  N   LEU A   1      14.705  44.857  38.623  0.00  0.00    -0.239 NA
ATOM      3  H   LEU A   1      13.800  44.349  38.693  0.00  0.00    +0.142 HD
ENDBRANCH   1   2
BRANCH   1   4
ATOM      4  C   LEU A   1      15.929  45.943  36.814  0.00  0.00    +0.224 C 
ATOM      5  O   LEU A   1      17.097  46.180  36.501  0.00  0.00    -0.287 OA
ENDBRANCH   1   4
BRANCH   1   6
ATOM      6  CB  LEU A   1      14.828  43.702  36.460  0.00  0.00    +0.025 C 
BRANCH   6   7
ATOM      7  CG  LEU A   1      15.443  43.409  35.083  0.00  0.00    +0.002 C 
ATOM      8  CD2 LEU A   1      16.849  42.834  35.207  0.00  0.00    +0.000 C 
ATOM      9  CD1 LEU A   1      14.544  42.450  34.327  0.00  0.00    +0.000 C 
ENDBRANCH   6   7
ENDBRANCH   1   6
TORSDOF 4
REMARK  Name = ../refined-set-2016/1ork/1ork_pocket.pdb
REMARK  256 active torsions:
REMARK  status: ('A' for Active; 'I' for Inactive)
REMARK    1  A    between atoms: _1  and  _3
REMARK    2  A    between atoms: _3  and  _4
REMARK    3  A    between atoms: _7  and  _9
REMARK    4  A    between atoms: _9  and  _10
REMARK    5  A    between atoms: _9  and  _12
REMARK    6  A    between atoms: _15  and  _17
REMARK    7  A    between atoms: _17  and  _18
REMARK    8  A    between atoms: _17  and  _20
REMARK    9  A    between atoms: _20  and  _21
REMARK   10  A    between atoms: _24  and  _26
REMARK   11  A    between atoms: _26  and  _27
REMARK   12  A    between atoms: _30  and  _32
REMARK   13  A    between atoms: _32  and  _33
REMARK   14  A    between atoms: _32  and  _35
REMARK   15  A    between atoms: _35  and  _36
REMARK   16  A    between atoms: _41  and  _43
REMARK   17  A    between atoms: _43  and  _44
REMARK   18  A    between atoms: _43  and  _46
REMARK   19  A    between atoms: _46  and  _47
REMARK   20  A    between atoms: _50  and  _52
REMARK   21  A    between atoms: _52  and  _53
REMARK   22  A    between atoms: _52  and  _55
REMARK   23  A    between atoms: _55  and  _56
REMARK   24  A    between atoms: _61  and  _62
REMARK   25  A    between atoms: _64  and  _66
REMARK   26  A    between atoms: _66  and  _67
REMARK   27  A    between atoms: _66  and  _69
REMARK   28  A    between atoms: _69  and  _70
REMARK   29  A    between atoms: _72  and  _74
REMARK   30  A    between atoms: _74  and  _75
REMARK   31  A    between atoms: _74  and  _77
REMARK   32  A    between atoms: _77  and  _78
REMARK   33  A    between atoms: _81  and  _83
REMARK   34  A    between atoms: _83  and  _84
REMARK   35  A    between atoms: _83  and  _86
REMARK   36  A    between atoms: _86  and  _87
REMARK   37  A    between atoms: _93  and  _95
REMARK   38  A    between atoms: _95  and  _96
REMARK   39  A    between atoms: _95  and  _98
REMARK   40  A    between atoms: _98  and  _99
REMARK   41  A    between atoms: _102  and  _104
REMARK   42  A    between atoms: _104  and  _105
REMARK   43  A    between atoms: _104  and  _107
REMARK   44  A    between atoms: _107  and  _108
REMARK   45  A    between atoms: _113  and  _115
REMARK   46  A    between atoms: _115  and  _116
REMARK   47  A    between atoms: _115  and  _118
REMARK   48  A    between atoms: _118  and  _119
REMARK   49  A    between atoms: _124  and  _126
REMARK   50  A    between atoms: _126  and  _127
REMARK   51  A    between atoms: _130  and  _132
REMARK   52  A    between atoms: _132  and  _133
REMARK   53  A    between atoms: _132  and  _135
REMARK   54  A    between atoms: _135  and  _136
REMARK   55  A    between atoms: _136  and  _137
REMARK   56  A    between atoms: _139  and  _141
REMARK   57  A    between atoms: _141  and  _142
REMARK   58  A    between atoms: _141  and  _144
REMARK   59  A    between atoms: _144  and  _145
REMARK   60  A    between atoms: _147  and  _149
REMARK   61  A    between atoms: _149  and  _150
REMARK   62  A    between atoms: _149  and  _152
REMARK   63  A    between atoms: _152  and  _153
REMARK   64  A    between atoms: _159  and  _161
REMARK   65  A    between atoms: _161  and  _162
REMARK   66  A    between atoms: _161  and  _164
REMARK   67  A    between atoms: _164  and  _165
REMARK   68  A    between atoms: _165  and  _166
REMARK   69  A    between atoms: _166  and  _167
REMARK   70  A    between atoms: _176  and  _178
REMARK   71  A    between atoms: _178  and  _179
REMARK   72  A    between atoms: _178  and  _181
REMARK   73  A    between atoms: _181  and  _182
REMARK   74  A    between atoms: _185  and  _187
REMARK   75  A    between atoms: _187  and  _188
REMARK   76  A    between atoms: _187  and  _190
REMARK   77  A    between atoms: _190  and  _191
REMARK   78  A    between atoms: _196  and  _198
REMARK   79  A    between atoms: _198  and  _199
REMARK   80  A    between atoms: _198  and  _201
REMARK   81  A    between atoms: _201  and  _202
REMARK   82  A    between atoms: _205  and  _207
REMARK   83  A    between atoms: _207  and  _208
REMARK   84  A    between atoms: _210  and  _212
REMARK   85  A    between atoms: _212  and  _213
REMARK   86  A    between atoms: _212  and  _215
REMARK   87  A    between atoms: _215  and  _216
REMARK   88  A    between atoms: _219  and  _221
REMARK   89  A    between atoms: _221  and  _222
REMARK   90  A    between atoms: _221  and  _224
REMARK   91  A    between atoms: _224  and  _225
REMARK   92  A    between atoms: _225  and  _226
REMARK   93  A    between atoms: _226  and  _227
REMARK   94  A    between atoms: _237  and  _238
REMARK   95  A    between atoms: _243  and  _245
REMARK   96  A    between atoms: _245  and  _246
REMARK   97  A    between atoms: _245  and  _248
REMARK   98  A    between atoms: _248  and  _249
REMARK   99  A    between atoms: _252  and  _254
REMARK  100  A    between atoms: _254  and  _255
REMARK  101  A    between atoms: _254  and  _257
REMARK  102  A    between atoms: _257  and  _258
REMARK  103  A    between atoms: _258  and  _259
REMARK  104  A    between atoms: _259  and  _260
REMARK  105  A    between atoms: _260  and  _261
REMARK  106  A    between atoms: _265  and  _267
REMARK  107  A    between atoms: _267  and  _268
REMARK  108  A    between atoms: _267  and  _270
REMARK  109  A    between atoms: _270  and  _271
REMARK  110  A    between atoms: _271  and  _272
REMARK  111  A    between atoms: _277  and  _279
REMARK  112  A    between atoms: _279  and  _280
REMARK  113  A    between atoms: _279  and  _282
REMARK  114  A    between atoms: _282  and  _283
REMARK  115  A    between atoms: _288  and  _289
REMARK  116  A    between atoms: _291  and  _293
REMARK  117  A    between atoms: _293  and  _294
REMARK  118  A    between atoms: _293  and  _296
REMARK  119  A    between atoms: _296  and  _297
REMARK  120  A    between atoms: _300  and  _302
REMARK  121  A    between atoms: _302  and  _303
REMARK  122  A    between atoms: _302  and  _305
REMARK  123  A    between atoms: _305  and  _306
REMARK  124  A    between atoms: _309  and  _311
REMARK  125  A    between atoms: _311  and  _312
REMARK  126  A    between atoms: _311  and  _314
REMARK  127  A    between atoms: _317  and  _319
REMARK  128  A    between atoms: _319  and  _320
REMARK  129  A    between atoms: _319  and  _322
REMARK  130  A    between atoms: _322  and  _323
REMARK  131  A    between atoms: _323  and  _324
REMARK  132  A    between atoms: _327  and  _329
REMARK  133  A    between atoms: _329  and  _330
REMARK  134  A    between atoms: _329  and  _332
REMARK  135  A    between atoms: _332  and  _333
REMARK  136  A    between atoms: _333  and  _334
REMARK  137  A    between atoms: _339  and  _341
REMARK  138  A    between atoms: _341  and  _342
REMARK  139  A    between atoms: _341  and  _344
REMARK  140  A    between atoms: _344  and  _345
REMARK  141  A    between atoms: _348  and  _350
REMARK  142  A    between atoms: _350  and  _351
REMARK  143  A    between atoms: _353  and  _355
REMARK  144  A    between atoms: _355  and  _356
REMARK  145  A    between atoms: _355  and  _358
REMARK  146  A    between atoms: _358  and  _359
REMARK  147  A    between atoms: _362  and  _364
REMARK  148  A    between atoms: _364  and  _365
REMARK  149  A    between atoms: _368  and  _370
REMARK  150  A    between atoms: _370  and  _371
REMARK  151  A    between atoms: _370  and  _373
REMARK  152  A    between atoms: _373  and  _374
REMARK  153  A    between atoms: _377  and  _379
REMARK  154  A    between atoms: _379  and  _380
REMARK  155  A    between atoms: _379  and  _382
REMARK  156  A    between atoms: _382  and  _383
REMARK  157  A    between atoms: _385  and  _387
REMARK  158  A    between atoms: _387  and  _388
REMARK  159  A    between atoms: _391  and  _393
REMARK  160  A    between atoms: _393  and  _394
REMARK  161  A    between atoms: _393  and  _396
REMARK  162  A    between atoms: _399  and  _401
REMARK  163  A    between atoms: _401  and  _402
REMARK  164  A    between atoms: _401  and  _404
REMARK  165  A    between atoms: _404  and  _405
REMARK  166  A    between atoms: _407  and  _409
REMARK  167  A    between atoms: _409  and  _410
REMARK  168  A    between atoms: _409  and  _412
REMARK  169  A    between atoms: _412  and  _413
REMARK  170  A    between atoms: _418  and  _420
REMARK  171  A    between atoms: _420  and  _421
REMARK  172  A    between atoms: _420  and  _423
REMARK  173  A    between atoms: _423  and  _424
REMARK  174  A    between atoms: _427  and  _429
REMARK  175  A    between atoms: _429  and  _430
REMARK  176  A    between atoms: _429  and  _432
REMARK  177  A    between atoms: _432  and  _433
REMARK  178  A    between atoms: _436  and  _438
REMARK  179  A    between atoms: _438  and  _439
REMARK  180  A    between atoms: _441  and  _443
REMARK  181  A    between atoms: _443  and  _444
REMARK  182  A    between atoms: _447  and  _449
REMARK  183  A    between atoms: _449  and  _450
REMARK  184  A    between atoms: _449  and  _452
REMARK  185  A    between atoms: _455  and  _457
REMARK  186  A    between atoms: _457  and  _458
REMARK  187  A    between atoms: _457  and  _460
REMARK  188  A    between atoms: _460  and  _461
REMARK  189  A    between atoms: _464  and  _466
REMARK  190  A    between atoms: _466  and  _467
REMARK  191  A    between atoms: _466  and  _469
REMARK  192  A    between atoms: _469  and  _470
REMARK  193  A    between atoms: _470  and  _471
REMARK  194  A    between atoms: _474  and  _476
REMARK  195  A    between atoms: _476  and  _477
REMARK  196  A    between atoms: _476  and  _479
REMARK  197  A    between atoms: _479  and  _480
REMARK  198  A    between atoms: _480  and  _481
REMARK  199  A    between atoms: _486  and  _488
REMARK  200  A    between atoms: _488  and  _489
REMARK  201  A    between atoms: _488  and  _491
REMARK  202  A    between atoms: _491  and  _492
REMARK  203  A    between atoms: _492  and  _493
REMARK  204  A    between atoms: _498  and  _500
REMARK  205  A    between atoms: _500  and  _501
REMARK  206  A    between atoms: _500  and  _503
REMARK  207  A    between atoms: _503  and  _504
REMARK  208  A    between atoms: _504  and  _505
REMARK  209  A    between atoms: _508  and  _510
REMARK  210  A    between atoms: _510  and  _511
REMARK  211  A    between atoms: _510  and  _513
REMARK  212  A    between atoms: _513  and  _514
REMARK  213  A    between atoms: _519  and  _521
REMARK  214  A    between atoms: _521  and  _522
REMARK  215  A    between atoms: _521  and  _524
REMARK  216  A    between atoms: _524  and  _525
REMARK  217  A    between atoms: _528  and  _530
REMARK  218  A    between atoms: _530  and  _531
REMARK  219  A    between atoms: _530  and  _533
REMARK  220  A    between atoms: _533  and  _534
REMARK  221  A    between atoms: _537  and  _539
REMARK  222  A    between atoms: _539  and  _540
REMARK  223  A    between atoms: _543  and  _545
REMARK  224  A    between atoms: _545  and  _546
REMARK  225  A    between atoms: _545  and  _548
REMARK  226  A    between atoms: _548  and  _549
REMARK  227  A    between atoms: _552  and  _554
REMARK  228  A    between atoms: _554  and  _555
REMARK  229  A    between atoms: _554  and  _557
REMARK  230  A    between atoms: _557  and  _558
REMARK  231  A    between atoms: _558  and  _559
REMARK  232  A    between atoms: _564  and  _566
REMARK  233  A    between atoms: _566  and  _567
REMARK  234  A    between atoms: _566  and  _569
REMARK  235  A    between atoms: _569  and  _570
REMARK  236  A    between atoms: _573  and  _575
REMARK  237  A    between atoms: _575  and  _576
REMARK  238  A    between atoms: _575  and  _578
REMARK  239  A    between atoms: _578  and  _579
REMARK  240  A    between atoms: _579  and  _580
REMARK  241  A    between atoms: _582  and  _584
REMARK  242  A    between atoms: _584  and  _585
REMARK  243  A    between atoms: _584  and  _587
REMARK  244  A    between atoms: _587  and  _588
REMARK  245  A    between atoms: _591  and  _593
REMARK  246  A    between atoms: _593  and  _594
REMARK  247  A    between atoms: _593  and  _596
REMARK  248  A    between atoms: _596  and  _597
REMARK  249  A    between atoms: _600  and  _602
REMARK  250  A    between atoms: _602  and  _603
REMARK  251  A    between atoms: _602  and  _605
REMARK  252  A    between atoms: _605  and  _606
REMARK  253  A    between atoms: _609  and  _611
REMARK  254  A    between atoms: _611  and  _612
REMARK  255  A    between atoms: _614  and  _616
REMARK  256  A    between atoms: _616  and  _617
REMARK                            x       y       z     vdW  Elec       q    Type
REMARK                         _______ _______ _______ _____ _____    ______ ____
ROOT
ATOM      1  C   GLN A   3      22.326  51.277  36.654  0.00  0.00    +0.241 C 
ATOM      2  N   ILE A   4      22.295  50.487  37.718  0.00  0.00    -0.297 N 
ATOM      3  H   ILE A   4      21.424  49.962  37.935  0.00  0.00    +0.150 HD
ATOM      4  O   GLN A   3      23.287  51.993  36.369  0.00  0.00    -0.273 OA
ENDROOT
BRANCH   2   5
ATOM      5  CA  ILE A   4      23.444  50.336  38.586  0.00  0.00    +0.149 C 
BRANCH   5   6
ATOM      6  C   ILE A   4      24.598  49.702  37.807  0.00  0.00    +0.241 C 
ATOM      7  O   ILE A   4      25.751  50.119  37.953  0.00  0.00    -0.273 OA
ATOM      8  N   MET A   5      24.278  48.741  36.938  0.00  0.00    -0.297 N 
ATOM      9  H   MET A   5      23.280  48.467  36.839  0.00  0.00    +0.150 HD
BRANCH   8  10
ATOM     10  CA  MET A   5      25.287  48.056  36.116  0.00  0.00    +0.149 C 
BRANCH  10  11
ATOM     11  C   MET A   5      25.904  48.920  35.006  0.00  0.00    +0.241 C 
ATOM     12  N   ASP A   6      25.399  50.141  34.839  0.00  0.00    -0.298 N 
ATOM     13  H   ASP A   6      24.615  50.448  35.449  0.00  0.00    +0.150 HD
ATOM     14  O   MET A   5      26.803  48.470  34.295  0.00  0.00    -0.273 OA
BRANCH  12  15
ATOM     15  CA  ASP A   6      25.911  51.065  33.826  0.00  0.00    +0.148 C 
BRANCH  15  16
ATOM     16  C   ASP A   6      26.606  52.266  34.470  0.00  0.00    +0.227 C 
ATOM     17  O   ASP A   6      27.358  52.977  33.801  0.00  0.00    -0.286 OA
ENDBRANCH  15  16
BRANCH  15  18
ATOM     18  CB  ASP A   6      24.780  51.552  32.906  0.00  0.00    +0.142 C 
BRANCH  18  19
ATOM     19  CG  ASP A   6      24.329  50.490  31.908  0.00  0.00    +0.367 C 
ATOM     20  OD2 ASP A   6      23.106  50.225  31.814  0.00  0.00    -0.246 OA
ATOM     21  OD1 ASP A   6      25.197  49.930  31.201  0.00  0.00    -0.246 OA
ENDBRANCH  18  19
ENDBRANCH  15  18
ENDBRANCH  12  15
ENDBRANCH  10  11
BRANCH  10  22
ATOM     22  CB  MET A   5      24.713  46.775  35.498  0.00  0.00    +0.041 C 
BRANCH  22  23
ATOM     23  CG  MET A   5      24.479  45.652  36.487  0.00  0.00    +0.060 C 
BRANCH  23  24
ATOM     24  SD  MET A   5      25.953  45.268  37.471  0.00  0.00    -0.139 S 
ATOM     25  CE  MET A   5      26.774  44.031  36.461  0.00  0.00    +0.069 C 
ENDBRANCH  23  24
ENDBRANCH  22  23
ENDBRANCH  10  22
ENDBRANCH   8  10
ENDBRANCH   5   6
BRANCH   5  26
ATOM     26  CB  ILE A   4      23.081  49.499  39.821  0.00  0.00    +0.027 C 
ATOM     27  CG2 ILE A   4      24.277  49.371  40.744  0.00  0.00    +0.002 C 
BRANCH  26  28
ATOM     28  CG1 ILE A   4      21.931  50.170  40.573  0.00  0.00    +0.002 C 
ATOM     29  CD1 ILE A   4      21.390  49.363  41.715  0.00  0.00    +0.000 C 
ENDBRANCH  26  28
ENDBRANCH   5  26
ENDBRANCH   2   5
BRANCH   1  30
ATOM     30  CA  GLN A   3      21.047  51.327  35.845  0.00  0.00    +0.149 C 
BRANCH  30  32
ATOM     31  C   LEU A   2      21.006  49.024  35.018  0.00  0.00    +0.241 C 
ATOM     32  N   GLN A   3      20.459  49.981  35.767  0.00  0.00    -0.297 N 
ATOM     33  H   GLN A   3      19.596  49.771  36.309  0.00  0.00    +0.150 HD
ATOM     34  O   LEU A   2      22.019  49.214  34.340  0.00  0.00    -0.273 OA
BRANCH  31  35
ATOM     35  CA  LEU A   2      20.330  47.646  35.023  0.00  0.00    +0.149 C 
BRANCH  35  38
ATOM     36  C   ALA A   1      20.422  47.217  37.432  0.00  0.00    +0.238 C 
ATOM     37  O   ALA A   1      21.616  47.530  37.506  0.00  0.00    -0.274 OA
ATOM     38  N   LEU A   2      19.726  47.275  36.300  0.00  0.00    -0.297 N 
ATOM     39  H   LEU A   2      18.712  47.047  36.325  0.00  0.00    +0.150 HD
BRANCH  36  40
ATOM     40  CA  ALA A   1      19.636  46.810  38.682  0.00  0.00    +0.145 C 
ATOM     41  CB  ALA A   1      19.256  45.335  38.618  0.00  0.00    +0.028 C 
BRANCH  40  42
ATOM     42  N   ALA A   1      18.435  47.631  38.790  0.00  0.00    -0.238 NA
ATOM     43  H   ALA A   1      17.507  47.165  38.851  0.00  0.00    +0.142 HD
ENDBRANCH  40  42
ENDBRANCH  36  40
ENDBRANCH  35  38
BRANCH  35  44
ATOM     44  CB  LEU A   2      19.294  47.530  33.893  0.00  0.00    +0.029 C 
BRANCH  44  45
ATOM     45  CG  LEU A   2      19.407  46.336  32.927  0.00  0.00    +0.002 C 
ATOM     46  CD2 LEU A   2      19.636  45.031  33.661  0.00  0.00    +0.000 C 
ATOM     47  CD1 LEU A   2      18.160  46.248  32.069  0.00  0.00    +0.000 C 
ENDBRANCH  44  45
ENDBRANCH  35  44
ENDBRANCH  31  35
ENDBRANCH  30  32
BRANCH  30  48
ATOM     48  CB  GLN A   3      20.111  52.306  36.547  0.00  0.00    +0.039 C 
BRANCH  48  49
ATOM     49  CG  GLN A   3      18.793  52.553  35.864  0.00  0.00    +0.087 C 
BRANCH  49  50
ATOM     50  CD  GLN A   3      17.884  53.459  36.681  0.00  0.00    +0.219 C 
ATOM     51  NE2 GLN A   3      18.159  53.575  37.985  0.00  0.00    -0.329 N 
ATOM     52 HE21 GLN A   3      17.567  54.180  38.590  0.00  0.00    +0.145 HD
ATOM     53 HE22 GLN A   3      18.965  53.061  38.394  0.00  0.00    +0.145 HD
ATOM     54  OE1 GLN A   3      16.942  54.046  36.146  0.00  0.00    -0.275 OA
ENDBRANCH  49  50
ENDBRANCH  48  49
ENDBRANCH  30  48
ENDBRANCH   1  30
TORSDOF 24
REMARK  Name = ../refined-set-2016/1ork/1ork_pocket.pdb
REMARK  256 active torsions:
REMARK  status: ('A' for Active; 'I' for Inactive)
REMARK    1  A    between atoms: _1  and  _3
REMARK    2  A    between atoms: _3  and  _4
REMARK    3  A    between atoms: _7  and  _9
REMARK    4  A    between atoms: _9  and  _10
REMARK    5  A    between atoms: _9  and  _12
REMARK    6  A    between atoms: _15  and  _17
REMARK    7  A    between atoms: _17  and  _18
REMARK    8  A    between atoms: _17  and  _20
REMARK    9  A    between atoms: _20  and  _21
REMARK   10  A    between atoms: _24  and  _26
REMARK   11  A    between atoms: _26  and  _27
REMARK   12  A    between atoms: _30  and  _32
REMARK   13  A    between atoms: _32  and  _33
REMARK   14  A    between atoms: _32  and  _35
REMARK   15  A    between atoms: _35  and  _36
REMARK   16  A    between atoms: _41  and  _43
REMARK   17  A    between atoms: _43  and  _44
REMARK   18  A    between atoms: _43  and  _46
REMARK   19  A    between atoms: _46  and  _47
REMARK   20  A    between atoms: _50  and  _52
REMARK   21  A    between atoms: _52  and  _53
REMARK   22  A    between atoms: _52  and  _55
REMARK   23  A    between atoms: _55  and  _56
REMARK   24  A    between atoms: _61  and  _62
REMARK   25  A    between atoms: _64  and  _66
REMARK   26  A    between atoms: _66  and  _67
REMARK   27  A    between atoms: _66  and  _69
REMARK   28  A    between atoms: _69  and  _70
REMARK   29  A    between atoms: _72  and  _74
REMARK   30  A    between atoms: _74  and  _75
REMARK   31  A    between atoms: _74  and  _77
REMARK   32  A    between atoms: _77  and  _78
REMARK   33  A    between atoms: _81  and  _83
REMARK   34  A    between atoms: _83  and  _84
REMARK   35  A    between atoms: _83  and  _86
REMARK   36  A    between atoms: _86  and  _87
REMARK   37  A    between atoms: _93  and  _95
REMARK   38  A    between atoms: _95  and  _96
REMARK   39  A    between atoms: _95  and  _98
REMARK   40  A    between atoms: _98  and  _99
REMARK   41  A    between atoms: _102  and  _104
REMARK   42  A    between atoms: _104  and  _105
REMARK   43  A    between atoms: _104  and  _107
REMARK   44  A    between atoms: _107  and  _108
REMARK   45  A    between atoms: _113  and  _115
REMARK   46  A    between atoms: _115  and  _116
REMARK   47  A    between atoms: _115  and  _118
REMARK   48  A    between atoms: _118  and  _119
REMARK   49  A    between atoms: _124  and  _126
REMARK   50  A    between atoms: _126  and  _127
REMARK   51  A    between atoms: _130  and  _132
REMARK   52  A    between atoms: _132  and  _133
REMARK   53  A    between atoms: _132  and  _135
REMARK   54  A    between atoms: _135  and  _136
REMARK   55  A    between atoms: _136  and  _137
REMARK   56  A    between atoms: _139  and  _141
REMARK   57  A    between atoms: _141  and  _142
REMARK   58  A    between atoms: _141  and  _144
REMARK   59  A    between atoms: _144  and  _145
REMARK   60  A    between atoms: _147  and  _149
REMARK   61  A    between atoms: _149  and  _150
REMARK   62  A    between atoms: _149  and  _152
REMARK   63  A    between atoms: _152  and  _153
REMARK   64  A    between atoms: _159  and  _161
REMARK   65  A    between atoms: _161  and  _162
REMARK   66  A    between atoms: _161  and  _164
REMARK   67  A    between atoms: _164  and  _165
REMARK   68  A    between atoms: _165  and  _166
REMARK   69  A    between atoms: _166  and  _167
REMARK   70  A    between atoms: _176  and  _178
REMARK   71  A    between atoms: _178  and  _179
REMARK   72  A    between atoms: _178  and  _181
REMARK   73  A    between atoms: _181  and  _182
REMARK   74  A    between atoms: _185  and  _187
REMARK   75  A    between atoms: _187  and  _188
REMARK   76  A    between atoms: _187  and  _190
REMARK   77  A    between atoms: _190  and  _191
REMARK   78  A    between atoms: _196  and  _198
REMARK   79  A    between atoms: _198  and  _199
REMARK   80  A    between atoms: _198  and  _201
REMARK   81  A    between atoms: _201  and  _202
REMARK   82  A    between atoms: _205  and  _207
REMARK   83  A    between atoms: _207  and  _208
REMARK   84  A    between atoms: _210  and  _212
REMARK   85  A    between atoms: _212  and  _213
REMARK   86  A    between atoms: _212  and  _215
REMARK   87  A    between atoms: _215  and  _216
REMARK   88  A    between atoms: _219  and  _221
REMARK   89  A    between atoms: _221  and  _222
REMARK   90  A    between atoms: _221  and  _224
REMARK   91  A    between atoms: _224  and  _225
REMARK   92  A    between atoms: _225  and  _226
REMARK   93  A    between atoms: _226  and  _227
REMARK   94  A    between atoms: _237  and  _238
REMARK   95  A    between atoms: _243  and  _245
REMARK   96  A    between atoms: _245  and  _246
REMARK   97  A    between atoms: _245  and  _248
REMARK   98  A    between atoms: _248  and  _249
REMARK   99  A    between atoms: _252  and  _254
REMARK  100  A    between atoms: _254  and  _255
REMARK  101  A    between atoms: _254  and  _257
REMARK  102  A    between atoms: _257  and  _258
REMARK  103  A    between atoms: _258  and  _259
REMARK  104  A    between atoms: _259  and  _260
REMARK  105  A    between atoms: _260  and  _261
REMARK  106  A    between atoms: _265  and  _267
REMARK  107  A    between atoms: _267  and  _268
REMARK  108  A    between atoms: _267  and  _270
REMARK  109  A    between atoms: _270  and  _271
REMARK  110  A    between atoms: _271  and  _272
REMARK  111  A    between atoms: _277  and  _279
REMARK  112  A    between atoms: _279  and  _280
REMARK  113  A    between atoms: _279  and  _282
REMARK  114  A    between atoms: _282  and  _283
REMARK  115  A    between atoms: _288  and  _289
REMARK  116  A    between atoms: _291  and  _293
REMARK  117  A    between atoms: _293  and  _294
REMARK  118  A    between atoms: _293  and  _296
REMARK  119  A    between atoms: _296  and  _297
REMARK  120  A    between atoms: _300  and  _302
REMARK  121  A    between atoms: _302  and  _303
REMARK  122  A    between atoms: _302  and  _305
REMARK  123  A    between atoms: _305  and  _306
REMARK  124  A    between atoms: _309  and  _311
REMARK  125  A    between atoms: _311  and  _312
REMARK  126  A    between atoms: _311  and  _314
REMARK  127  A    between atoms: _317  and  _319
REMARK  128  A    between atoms: _319  and  _320
REMARK  129  A    between atoms: _319  and  _322
REMARK  130  A    between atoms: _322  and  _323
REMARK  131  A    between atoms: _323  and  _324
REMARK  132  A    between atoms: _327  and  _329
REMARK  133  A    between atoms: _329  and  _330
REMARK  134  A    between atoms: _329  and  _332
REMARK  135  A    between atoms: _332  and  _333
REMARK  136  A    between atoms: _333  and  _334
REMARK  137  A    between atoms: _339  and  _341
REMARK  138  A    between atoms: _341  and  _342
REMARK  139  A    between atoms: _341  and  _344
REMARK  140  A    between atoms: _344  and  _345
REMARK  141  A    between atoms: _348  and  _350
REMARK  142  A    between atoms: _350  and  _351
REMARK  143  A    between atoms: _353  and  _355
REMARK  144  A    between atoms: _355  and  _356
REMARK  145  A    between atoms: _355  and  _358
REMARK  146  A    between atoms: _358  and  _359
REMARK  147  A    between atoms: _362  and  _364
REMARK  148  A    between atoms: _364  and  _365
REMARK  149  A    between atoms: _368  and  _370
REMARK  150  A    between atoms: _370  and  _371
REMARK  151  A    between atoms: _370  and  _373
REMARK  152  A    between atoms: _373  and  _374
REMARK  153  A    between atoms: _377  and  _379
REMARK  154  A    between atoms: _379  and  _380
REMARK  155  A    between atoms: _379  and  _382
REMARK  156  A    between atoms: _382  and  _383
REMARK  157  A    between atoms: _385  and  _387
REMARK  158  A    between atoms: _387  and  _388
REMARK  159  A    between atoms: _391  and  _393
REMARK  160  A    between atoms: _393  and  _394
REMARK  161  A    between atoms: _393  and  _396
REMARK  162  A    between atoms: _399  and  _401
REMARK  163  A    between atoms: _401  and  _402
REMARK  164  A    between atoms: _401  and  _404
REMARK  165  A    between atoms: _404  and  _405
REMARK  166  A    between atoms: _407  and  _409
REMARK  167  A    between atoms: _409  and  _410
REMARK  168  A    between atoms: _409  and  _412
REMARK  169  A    between atoms: _412  and  _413
REMARK  170  A    between atoms: _418  and  _420
REMARK  171  A    between atoms: _420  and  _421
REMARK  172  A    between atoms: _420  and  _423
REMARK  173  A    between atoms: _423  and  _424
REMARK  174  A    between atoms: _427  and  _429
REMARK  175  A    between atoms: _429  and  _430
REMARK  176  A    between atoms: _429  and  _432
REMARK  177  A    between atoms: _432  and  _433
REMARK  178  A    between atoms: _436  and  _438
REMARK  179  A    between atoms: _438  and  _439
REMARK  180  A    between atoms: _441  and  _443
REMARK  181  A    between atoms: _443  and  _444
REMARK  182  A    between atoms: _447  and  _449
REMARK  183  A    between atoms: _449  and  _450
REMARK  184  A    between atoms: _449  and  _452
REMARK  185  A    between atoms: _455  and  _457
REMARK  186  A    between atoms: _457  and  _458
REMARK  187  A    between atoms: _457  and  _460
REMARK  188  A    between atoms: _460  and  _461
REMARK  189  A    between atoms: _464  and  _466
REMARK  190  A    between atoms: _466  and  _467
REMARK  191  A    between atoms: _466  and  _469
REMARK  192  A    between atoms: _469  and  _470
REMARK  193  A    between atoms: _470  and  _471
REMARK  194  A    between atoms: _474  and  _476
REMARK  195  A    between atoms: _476  and  _477
REMARK  196  A    between atoms: _476  and  _479
REMARK  197  A    between atoms: _479  and  _480
REMARK  198  A    between atoms: _480  and  _481
REMARK  199  A    between atoms: _486  and  _488
REMARK  200  A    between atoms: _488  and  _489
REMARK  201  A    between atoms: _488  and  _491
REMARK  202  A    between atoms: _491  and  _492
REMARK  203  A    between atoms: _492  and  _493
REMARK  204  A    between atoms: _498  and  _500
REMARK  205  A    between atoms: _500  and  _501
REMARK  206  A    between atoms: _500  and  _503
REMARK  207  A    between atoms: _503  and  _504
REMARK  208  A    between atoms: _504  and  _505
REMARK  209  A    between atoms: _508  and  _510
REMARK  210  A    between atoms: _510  and  _511
REMARK  211  A    between atoms: _510  and  _513
REMARK  212  A    between atoms: _513  and  _514
REMARK  213  A    between atoms: _519  and  _521
REMARK  214  A    between atoms: _521  and  _522
REMARK  215  A    between atoms: _521  and  _524
REMARK  216  A    between atoms: _524  and  _525
REMARK  217  A    between atoms: _528  and  _530
REMARK  218  A    between atoms: _530  and  _531
REMARK  219  A    between atoms: _530  and  _533
REMARK  220  A    between atoms: _533  and  _534
REMARK  221  A    between atoms: _537  and  _539
REMARK  222  A    between atoms: _539  and  _540
REMARK  223  A    between atoms: _543  and  _545
REMARK  224  A    between atoms: _545  and  _546
REMARK  225  A    between atoms: _545  and  _548
REMARK  226  A    between atoms: _548  and  _549
REMARK  227  A    between atoms: _552  and  _554
REMARK  228  A    between atoms: _554  and  _555
REMARK  229  A    between atoms: _554  and  _557
REMARK  230  A    between atoms: _557  and  _558
REMARK  231  A    between atoms: _558  and  _559
REMARK  232  A    between atoms: _564  and  _566
REMARK  233  A    between atoms: _566  and  _567
REMARK  234  A    between atoms: _566  and  _569
REMARK  235  A    between atoms: _569  and  _570
REMARK  236  A    between atoms: _573  and  _575
REMARK  237  A    between atoms: _575  and  _576
REMARK  238  A    between atoms: _575  and  _578
REMARK  239  A    between atoms: _578  and  _579
REMARK  240  A    between atoms: _579  and  _580
REMARK  241  A    between atoms: _582  and  _584
REMARK  242  A    between atoms: _584  and  _585
REMARK  243  A    between atoms: _584  and  _587
REMARK  244  A    between atoms: _587  and  _588
REMARK  245  A    between atoms: _591  and  _593
REMARK  246  A    between atoms: _593  and  _594
REMARK  247  A    between atoms: _593  and  _596
REMARK  248  A    between atoms: _596  and  _597
REMARK  249  A    between atoms: _600  and  _602
REMARK  250  A    between atoms: _602  and  _603
REMARK  251  A    between atoms: _602  and  _605
REMARK  252  A    between atoms: _605  and  _606
REMARK  253  A    between atoms: _609  and  _611
REMARK  254  A    between atoms: _611  and  _612
REMARK  255  A    between atoms: _614  and  _616
REMARK  256  A    between atoms: _616  and  _617
REMARK                            x       y       z     vdW  Elec       q    Type
REMARK                         _______ _______ _______ _____ _____    ______ ____
ROOT
ATOM      1  CA  ASP A   2      32.240  50.165  33.526  0.00  0.00    +0.160 C 
ENDROOT
BRANCH   1   4
ATOM      2  C   ASP A   1      30.779  51.512  34.889  0.00  0.00    +0.239 C 
ATOM      3  O   ASP A   1      29.852  50.726  34.696  0.00  0.00    -0.274 OA
ATOM      4  N   ASP A   2      31.989  51.317  34.382  0.00  0.00    -0.297 N 
ATOM      5  H   ASP A   2      32.757  51.985  34.595  0.00  0.00    +0.150 HD
BRANCH   2   6
ATOM      6  CA  ASP A   1      30.557  52.742  35.756  0.00  0.00    +0.156 C 
BRANCH   6   7
ATOM      7  N   ASP A   1      29.149  52.696  36.117  0.00  0.00    -0.238 NA
ATOM      8  H   ASP A   1      28.712  51.777  36.332  0.00  0.00    +0.142 HD
ENDBRANCH   6   7
BRANCH   6   9
ATOM      9  CB  ASP A   1      31.469  52.768  37.002  0.00  0.00    +0.140 C 
BRANCH   9  10
ATOM     10  CG  ASP A   1      31.576  51.420  37.712  0.00  0.00    +0.367 C 
ATOM     11  OD2 ASP A   1      32.644  51.169  38.310  0.00  0.00    -0.246 OA
ATOM     12  OD1 ASP A   1      30.613  50.626  37.700  0.00  0.00    -0.246 OA
ENDBRANCH   9  10
ENDBRANCH   6   9
ENDBRANCH   2   6
ENDBRANCH   1   4
BRANCH   1  13
ATOM     13  C   ASP A   2      32.463  48.851  34.268  0.00  0.00    +0.241 C 
ATOM     14  N   GLY A   3      31.471  48.445  35.059  0.00  0.00    -0.296 N 
ATOM     15  H   GLY A   3      30.612  49.026  35.136  0.00  0.00    +0.150 HD
ATOM     16  O   ASP A   2      33.504  48.221  34.120  0.00  0.00    -0.273 OA
BRANCH  14  17
ATOM     17  CA  GLY A   3      31.562  47.209  35.817  0.00  0.00    +0.163 C 
BRANCH  17  18
ATOM     18  C   GLY A   3      32.661  47.102  36.869  0.00  0.00    +0.229 C 
ATOM     19  O   GLY A   3      32.787  46.063  37.512  0.00  0.00    -0.286 OA
ENDBRANCH  17  18
ENDBRANCH  14  17
ENDBRANCH   1  13
BRANCH   1  20
ATOM     20  CB  ASP A   2      33.393  50.467  32.573  0.00  0.00    +0.143 C 
BRANCH  20  21
ATOM     21  CG  ASP A   2      33.048  51.565  31.588  0.00  0.00    +0.367 C 
ATOM     22  OD2 ASP A   2      33.851  52.512  31.453  0.00  0.00    -0.246 OA
ATOM     23  OD1 ASP A   2      31.961  51.484  30.967  0.00  0.00    -0.246 OA
ENDBRANCH  20  21
ENDBRANCH   1  20
TORSDOF 10
REMARK  Name = ../refined-set-2016/1ork/1ork_pocket.pdb
REMARK  256 active torsions:
REMARK  status: ('A' for Active; 'I' for Inactive)
REMARK    1  A    between atoms: _1  and  _3
REMARK    2  A    between atoms: _3  and  _4
REMARK    3  A    between atoms: _7  and  _9
REMARK    4  A    between atoms: _9  and  _10
REMARK    5  A    between atoms: _9  and  _12
REMARK    6  A    between atoms: _15  and  _17
REMARK    7  A    between atoms: _17  and  _18
REMARK    8  A    between atoms: _17  and  _20
REMARK    9  A    between atoms: _20  and  _21
REMARK   10  A    between atoms: _24  and  _26
REMARK   11  A    between atoms: _26  and  _27
REMARK   12  A    between atoms: _30  and  _32
REMARK   13  A    between atoms: _32  and  _33
REMARK   14  A    between atoms: _32  and  _35
REMARK   15  A    between atoms: _35  and  _36
REMARK   16  A    between atoms: _41  and  _43
REMARK   17  A    between atoms: _43  and  _44
REMARK   18  A    between atoms: _43  and  _46
REMARK   19  A    between atoms: _46  and  _47
REMARK   20  A    between atoms: _50  and  _52
REMARK   21  A    between atoms: _52  and  _53
REMARK   22  A    between atoms: _52  and  _55
REMARK   23  A    between atoms: _55  and  _56
REMARK   24  A    between atoms: _61  and  _62
REMARK   25  A    between atoms: _64  and  _66
REMARK   26  A    between atoms: _66  and  _67
REMARK   27  A    between atoms: _66  and  _69
REMARK   28  A    between atoms: _69  and  _70
REMARK   29  A    between atoms: _72  and  _74
REMARK   30  A    between atoms: _74  and  _75
REMARK   31  A    between atoms: _74  and  _77
REMARK   32  A    between atoms: _77  and  _78
REMARK   33  A    between atoms: _81  and  _83
REMARK   34  A    between atoms: _83  and  _84
REMARK   35  A    between atoms: _83  and  _86
REMARK   36  A    between atoms: _86  and  _87
REMARK   37  A    between atoms: _93  and  _95
REMARK   38  A    between atoms: _95  and  _96
REMARK   39  A    between atoms: _95  and  _98
REMARK   40  A    between atoms: _98  and  _99
REMARK   41  A    between atoms: _102  and  _104
REMARK   42  A    between atoms: _104  and  _105
REMARK   43  A    between atoms: _104  and  _107
REMARK   44  A    between atoms: _107  and  _108
REMARK   45  A    between atoms: _113  and  _115
REMARK   46  A    between atoms: _115  and  _116
REMARK   47  A    between atoms: _115  and  _118
REMARK   48  A    between atoms: _118  and  _119
REMARK   49  A    between atoms: _124  and  _126
REMARK   50  A    between atoms: _126  and  _127
REMARK   51  A    between atoms: _130  and  _132
REMARK   52  A    between atoms: _132  and  _133
REMARK   53  A    between atoms: _132  and  _135
REMARK   54  A    between atoms: _135  and  _136
REMARK   55  A    between atoms: _136  and  _137
REMARK   56  A    between atoms: _139  and  _141
REMARK   57  A    between atoms: _141  and  _142
REMARK   58  A    between atoms: _141  and  _144
REMARK   59  A    between atoms: _144  and  _145
REMARK   60  A    between atoms: _147  and  _149
REMARK   61  A    between atoms: _149  and  _150
REMARK   62  A    between atoms: _149  and  _152
REMARK   63  A    between atoms: _152  and  _153
REMARK   64  A    between atoms: _159  and  _161
REMARK   65  A    between atoms: _161  and  _162
REMARK   66  A    between atoms: _161  and  _164
REMARK   67  A    between atoms: _164  and  _165
REMARK   68  A    between atoms: _165  and  _166
REMARK   69  A    between atoms: _166  and  _167
REMARK   70  A    between atoms: _176  and  _178
REMARK   71  A    between atoms: _178  and  _179
REMARK   72  A    between atoms: _178  and  _181
REMARK   73  A    between atoms: _181  and  _182
REMARK   74  A    between atoms: _185  and  _187
REMARK   75  A    between atoms: _187  and  _188
REMARK   76  A    between atoms: _187  and  _190
REMARK   77  A    between atoms: _190  and  _191
REMARK   78  A    between atoms: _196  and  _198
REMARK   79  A    between atoms: _198  and  _199
REMARK   80  A    between atoms: _198  and  _201
REMARK   81  A    between atoms: _201  and  _202
REMARK   82  A    between atoms: _205  and  _207
REMARK   83  A    between atoms: _207  and  _208
REMARK   84  A    between atoms: _210  and  _212
REMARK   85  A    between atoms: _212  and  _213
REMARK   86  A    between atoms: _212  and  _215
REMARK   87  A    between atoms: _215  and  _216
REMARK   88  A    between atoms: _219  and  _221
REMARK   89  A    between atoms: _221  and  _222
REMARK   90  A    between atoms: _221  and  _224
REMARK   91  A    between atoms: _224  and  _225
REMARK   92  A    between atoms: _225  and  _226
REMARK   93  A    between atoms: _226  and  _227
REMARK   94  A    between atoms: _237  and  _238
REMARK   95  A    between atoms: _243  and  _245
REMARK   96  A    between atoms: _245  and  _246
REMARK   97  A    between atoms: _245  and  _248
REMARK   98  A    between atoms: _248  and  _249
REMARK   99  A    between atoms: _252  and  _254
REMARK  100  A    between atoms: _254  and  _255
REMARK  101  A    between atoms: _254  and  _257
REMARK  102  A    between atoms: _257  and  _258
REMARK  103  A    between atoms: _258  and  _259
REMARK  104  A    between atoms: _259  and  _260
REMARK  105  A    between atoms: _260  and  _261
REMARK  106  A    between atoms: _265  and  _267
REMARK  107  A    between atoms: _267  and  _268
REMARK  108  A    between atoms: _267  and  _270
REMARK  109  A    between atoms: _270  and  _271
REMARK  110  A    between atoms: _271  and  _272
REMARK  111  A    between atoms: _277  and  _279
REMARK  112  A    between atoms: _279  and  _280
REMARK  113  A    between atoms: _279  and  _282
REMARK  114  A    between atoms: _282  and  _283
REMARK  115  A    between atoms: _288  and  _289
REMARK  116  A    between atoms: _291  and  _293
REMARK  117  A    between atoms: _293  and  _294
REMARK  118  A    between atoms: _293  and  _296
REMARK  119  A    between atoms: _296  and  _297
REMARK  120  A    between atoms: _300  and  _302
REMARK  121  A    between atoms: _302  and  _303
REMARK  122  A    between atoms: _302  and  _305
REMARK  123  A    between atoms: _305  and  _306
REMARK  124  A    between atoms: _309  and  _311
REMARK  125  A    between atoms: _311  and  _312
REMARK  126  A    between atoms: _311  and  _314
REMARK  127  A    between atoms: _317  and  _319
REMARK  128  A    between atoms: _319  and  _320
REMARK  129  A    between atoms: _319  and  _322
REMARK  130  A    between atoms: _322  and  _323
REMARK  131  A    between atoms: _323  and  _324
REMARK  132  A    between atoms: _327  and  _329
REMARK  133  A    between atoms: _329  and  _330
REMARK  134  A    between atoms: _329  and  _332
REMARK  135  A    between atoms: _332  and  _333
REMARK  136  A    between atoms: _333  and  _334
REMARK  137  A    between atoms: _339  and  _341
REMARK  138  A    between atoms: _341  and  _342
REMARK  139  A    between atoms: _341  and  _344
REMARK  140  A    between atoms: _344  and  _345
REMARK  141  A    between atoms: _348  and  _350
REMARK  142  A    between atoms: _350  and  _351
REMARK  143  A    between atoms: _353  and  _355
REMARK  144  A    between atoms: _355  and  _356
REMARK  145  A    between atoms: _355  and  _358
REMARK  146  A    between atoms: _358  and  _359
REMARK  147  A    between atoms: _362  and  _364
REMARK  148  A    between atoms: _364  and  _365
REMARK  149  A    between atoms: _368  and  _370
REMARK  150  A    between atoms: _370  and  _371
REMARK  151  A    between atoms: _370  and  _373
REMARK  152  A    between atoms: _373  and  _374
REMARK  153  A    between atoms: _377  and  _379
REMARK  154  A    between atoms: _379  and  _380
REMARK  155  A    between atoms: _379  and  _382
REMARK  156  A    between atoms: _382  and  _383
REMARK  157  A    between atoms: _385  and  _387
REMARK  158  A    between atoms: _387  and  _388
REMARK  159  A    between atoms: _391  and  _393
REMARK  160  A    between atoms: _393  and  _394
REMARK  161  A    between atoms: _393  and  _396
REMARK  162  A    between atoms: _399  and  _401
REMARK  163  A    between atoms: _401  and  _402
REMARK  164  A    between atoms: _401  and  _404
REMARK  165  A    between atoms: _404  and  _405
REMARK  166  A    between atoms: _407  and  _409
REMARK  167  A    between atoms: _409  and  _410
REMARK  168  A    between atoms: _409  and  _412
REMARK  169  A    between atoms: _412  and  _413
REMARK  170  A    between atoms: _418  and  _420
REMARK  171  A    between atoms: _420  and  _421
REMARK  172  A    between atoms: _420  and  _423
REMARK  173  A    between atoms: _423  and  _424
REMARK  174  A    between atoms: _427  and  _429
REMARK  175  A    between atoms: _429  and  _430
REMARK  176  A    between atoms: _429  and  _432
REMARK  177  A    between atoms: _432  and  _433
REMARK  178  A    between atoms: _436  and  _438
REMARK  179  A    between atoms: _438  and  _439
REMARK  180  A    between atoms: _441  and  _443
REMARK  181  A    between atoms: _443  and  _444
REMARK  182  A    between atoms: _447  and  _449
REMARK  183  A    between atoms: _449  and  _450
REMARK  184  A    between atoms: _449  and  _452
REMARK  185  A    between atoms: _455  and  _457
REMARK  186  A    between atoms: _457  and  _458
REMARK  187  A    between atoms: _457  and  _460
REMARK  188  A    between atoms: _460  and  _461
REMARK  189  A    between atoms: _464  and  _466
REMARK  190  A    between atoms: _466  and  _467
REMARK  191  A    between atoms: _466  and  _469
REMARK  192  A    between atoms: _469  and  _470
REMARK  193  A    between atoms: _470  and  _471
REMARK  194  A    between atoms: _474  and  _476
REMARK  195  A    between atoms: _476  and  _477
REMARK  196  A    between atoms: _476  and  _479
REMARK  197  A    between atoms: _479  and  _480
REMARK  198  A    between atoms: _480  and  _481
REMARK  199  A    between atoms: _486  and  _488
REMARK  200  A    between atoms: _488  and  _489
REMARK  201  A    between atoms: _488  and  _491
REMARK  202  A    between atoms: _491  and  _492
REMARK  203  A    between atoms: _492  and  _493
REMARK  204  A    between atoms: _498  and  _500
REMARK  205  A    between atoms: _500  and  _501
REMARK  206  A    between atoms: _500  and  _503
REMARK  207  A    between atoms: _503  and  _504
REMARK  208  A    between atoms: _504  and  _505
REMARK  209  A    between atoms: _508  and  _510
REMARK  210  A    between atoms: _510  and  _511
REMARK  211  A    between atoms: _510  and  _513
REMARK  212  A    between atoms: _513  and  _514
REMARK  213  A    between atoms: _519  and  _521
REMARK  214  A    between atoms: _521  and  _522
REMARK  215  A    between atoms: _521  and  _524
REMARK  216  A    between atoms: _524  and  _525
REMARK  217  A    between atoms: _528  and  _530
REMARK  218  A    between atoms: _530  and  _531
REMARK  219  A    between atoms: _530  and  _533
REMARK  220  A    between atoms: _533  and  _534
REMARK  221  A    between atoms: _537  and  _539
REMARK  222  A    between atoms: _539  and  _540
REMARK  223  A    between atoms: _543  and  _545
REMARK  224  A    between atoms: _545  and  _546
REMARK  225  A    between atoms: _545  and  _548
REMARK  226  A    between atoms: _548  and  _549
REMARK  227  A    between atoms: _552  and  _554
REMARK  228  A    between atoms: _554  and  _555
REMARK  229  A    between atoms: _554  and  _557
REMARK  230  A    between atoms: _557  and  _558
REMARK  231  A    between atoms: _558  and  _559
REMARK  232  A    between atoms: _564  and  _566
REMARK  233  A    between atoms: _566  and  _567
REMARK  234  A    between atoms: _566  and  _569
REMARK  235  A    between atoms: _569  and  _570
REMARK  236  A    between atoms: _573  and  _575
REMARK  237  A    between atoms: _575  and  _576
REMARK  238  A    between atoms: _575  and  _578
REMARK  239  A    between atoms: _578  and  _579
REMARK  240  A    between atoms: _579  and  _580
REMARK  241  A    between atoms: _582  and  _584
REMARK  242  A    between atoms: _584  and  _585
REMARK  243  A    between atoms: _584  and  _587
REMARK  244  A    between atoms: _587  and  _588
REMARK  245  A    between atoms: _591  and  _593
REMARK  246  A    between atoms: _593  and  _594
REMARK  247  A    between atoms: _593  and  _596
REMARK  248  A    between atoms: _596  and  _597
REMARK  249  A    between atoms: _600  and  _602
REMARK  250  A    between atoms: _602  and  _603
REMARK  251  A    between atoms: _602  and  _605
REMARK  252  A    between atoms: _605  and  _606
REMARK  253  A    between atoms: _609  and  _611
REMARK  254  A    between atoms: _611  and  _612
REMARK  255  A    between atoms: _614  and  _616
REMARK  256  A    between atoms: _616  and  _617
REMARK                            x       y       z     vdW  Elec       q    Type
REMARK                         _______ _______ _______ _____ _____    ______ ____
ROOT
ATOM      1  CA  ALA A   1      30.820  45.074  41.022  0.00  0.00    +0.000 C 
ATOM      2  CB  ALA A   1      29.885  44.730  39.873  0.00  0.00    +0.000 C 
ENDROOT
BRANCH   1   3
ATOM      3  N   ALA A   1      31.290  46.450  40.892  0.00  0.00    +0.000 NA
ATOM      4  H   ALA A   1      30.868  47.062  40.165  0.00  0.00    +0.000 HD
ENDBRANCH   1   3
BRANCH   1   5
ATOM      5  C   ALA A   1      31.987  44.087  41.066  0.00  0.00    +0.000 C 
ATOM      6  O   ALA A   1      31.963  43.119  41.826  0.00  0.00    +0.000 OA
ENDBRANCH   1   5
TORSDOF 2
REMARK  Name = ../refined-set-2016/1ork/1ork_pocket.pdb
REMARK  256 active torsions:
REMARK  status: ('A' for Active; 'I' for Inactive)
REMARK    1  A    between atoms: _1  and  _3
REMARK    2  A    between atoms: _3  and  _4
REMARK    3  A    between atoms: _7  and  _9
REMARK    4  A    between atoms: _9  and  _10
REMARK    5  A    between atoms: _9  and  _12
REMARK    6  A    between atoms: _15  and  _17
REMARK    7  A    between atoms: _17  and  _18
REMARK    8  A    between atoms: _17  and  _20
REMARK    9  A    between atoms: _20  and  _21
REMARK   10  A    between atoms: _24  and  _26
REMARK   11  A    between atoms: _26  and  _27
REMARK   12  A    between atoms: _30  and  _32
REMARK   13  A    between atoms: _32  and  _33
REMARK   14  A    between atoms: _32  and  _35
REMARK   15  A    between atoms: _35  and  _36
REMARK   16  A    between atoms: _41  and  _43
REMARK   17  A    between atoms: _43  and  _44
REMARK   18  A    between atoms: _43  and  _46
REMARK   19  A    between atoms: _46  and  _47
REMARK   20  A    between atoms: _50  and  _52
REMARK   21  A    between atoms: _52  and  _53
REMARK   22  A    between atoms: _52  and  _55
REMARK   23  A    between atoms: _55  and  _56
REMARK   24  A    between atoms: _61  and  _62
REMARK   25  A    between atoms: _64  and  _66
REMARK   26  A    between atoms: _66  and  _67
REMARK   27  A    between atoms: _66  and  _69
REMARK   28  A    between atoms: _69  and  _70
REMARK   29  A    between atoms: _72  and  _74
REMARK   30  A    between atoms: _74  and  _75
REMARK   31  A    between atoms: _74  and  _77
REMARK   32  A    between atoms: _77  and  _78
REMARK   33  A    between atoms: _81  and  _83
REMARK   34  A    between atoms: _83  and  _84
REMARK   35  A    between atoms: _83  and  _86
REMARK   36  A    between atoms: _86  and  _87
REMARK   37  A    between atoms: _93  and  _95
REMARK   38  A    between atoms: _95  and  _96
REMARK   39  A    between atoms: _95  and  _98
REMARK   40  A    between atoms: _98  and  _99
REMARK   41  A    between atoms: _102  and  _104
REMARK   42  A    between atoms: _104  and  _105
REMARK   43  A    between atoms: _104  and  _107
REMARK   44  A    between atoms: _107  and  _108
REMARK   45  A    between atoms: _113  and  _115
REMARK   46  A    between atoms: _115  and  _116
REMARK   47  A    between atoms: _115  and  _118
REMARK   48  A    between atoms: _118  and  _119
REMARK   49  A    between atoms: _124  and  _126
REMARK   50  A    between atoms: _126  and  _127
REMARK   51  A    between atoms: _130  and  _132
REMARK   52  A    between atoms: _132  and  _133
REMARK   53  A    between atoms: _132  and  _135
REMARK   54  A    between atoms: _135  and  _136
REMARK   55  A    between atoms: _136  and  _137
REMARK   56  A    between atoms: _139  and  _141
REMARK   57  A    between atoms: _141  and  _142
REMARK   58  A    between atoms: _141  and  _144
REMARK   59  A    between atoms: _144  and  _145
REMARK   60  A    between atoms: _147  and  _149
REMARK   61  A    between atoms: _149  and  _150
REMARK   62  A    between atoms: _149  and  _152
REMARK   63  A    between atoms: _152  and  _153
REMARK   64  A    between atoms: _159  and  _161
REMARK   65  A    between atoms: _161  and  _162
REMARK   66  A    between atoms: _161  and  _164
REMARK   67  A    between atoms: _164  and  _165
REMARK   68  A    between atoms: _165  and  _166
REMARK   69  A    between atoms: _166  and  _167
REMARK   70  A    between atoms: _176  and  _178
REMARK   71  A    between atoms: _178  and  _179
REMARK   72  A    between atoms: _178  and  _181
REMARK   73  A    between atoms: _181  and  _182
REMARK   74  A    between atoms: _185  and  _187
REMARK   75  A    between atoms: _187  and  _188
REMARK   76  A    between atoms: _187  and  _190
REMARK   77  A    between atoms: _190  and  _191
REMARK   78  A    between atoms: _196  and  _198
REMARK   79  A    between atoms: _198  and  _199
REMARK   80  A    between atoms: _198  and  _201
REMARK   81  A    between atoms: _201  and  _202
REMARK   82  A    between atoms: _205  and  _207
REMARK   83  A    between atoms: _207  and  _208
REMARK   84  A    between atoms: _210  and  _212
REMARK   85  A    between atoms: _212  and  _213
REMARK   86  A    between atoms: _212  and  _215
REMARK   87  A    between atoms: _215  and  _216
REMARK   88  A    between atoms: _219  and  _221
REMARK   89  A    between atoms: _221  and  _222
REMARK   90  A    between atoms: _221  and  _224
REMARK   91  A    between atoms: _224  and  _225
REMARK   92  A    between atoms: _225  and  _226
REMARK   93  A    between atoms: _226  and  _227
REMARK   94  A    between atoms: _237  and  _238
REMARK   95  A    between atoms: _243  and  _245
REMARK   96  A    between atoms: _245  and  _246
REMARK   97  A    between atoms: _245  and  _248
REMARK   98  A    between atoms: _248  and  _249
REMARK   99  A    between atoms: _252  and  _254
REMARK  100  A    between atoms: _254  and  _255
REMARK  101  A    between atoms: _254  and  _257
REMARK  102  A    between atoms: _257  and  _258
REMARK  103  A    between atoms: _258  and  _259
REMARK  104  A    between atoms: _259  and  _260
REMARK  105  A    between atoms: _260  and  _261
REMARK  106  A    between atoms: _265  and  _267
REMARK  107  A    between atoms: _267  and  _268
REMARK  108  A    between atoms: _267  and  _270
REMARK  109  A    between atoms: _270  and  _271
REMARK  110  A    between atoms: _271  and  _272
REMARK  111  A    between atoms: _277  and  _279
REMARK  112  A    between atoms: _279  and  _280
REMARK  113  A    between atoms: _279  and  _282
REMARK  114  A    between atoms: _282  and  _283
REMARK  115  A    between atoms: _288  and  _289
REMARK  116  A    between atoms: _291  and  _293
REMARK  117  A    between atoms: _293  and  _294
REMARK  118  A    between atoms: _293  and  _296
REMARK  119  A    between atoms: _296  and  _297
REMARK  120  A    between atoms: _300  and  _302
REMARK  121  A    between atoms: _302  and  _303
REMARK  122  A    between atoms: _302  and  _305
REMARK  123  A    between atoms: _305  and  _306
REMARK  124  A    between atoms: _309  and  _311
REMARK  125  A    between atoms: _311  and  _312
REMARK  126  A    between atoms: _311  and  _314
REMARK  127  A    between atoms: _317  and  _319
REMARK  128  A    between atoms: _319  and  _320
REMARK  129  A    between atoms: _319  and  _322
REMARK  130  A    between atoms: _322  and  _323
REMARK  131  A    between atoms: _323  and  _324
REMARK  132  A    between atoms: _327  and  _329
REMARK  133  A    between atoms: _329  and  _330
REMARK  134  A    between atoms: _329  and  _332
REMARK  135  A    between atoms: _332  and  _333
REMARK  136  A    between atoms: _333  and  _334
REMARK  137  A    between atoms: _339  and  _341
REMARK  138  A    between atoms: _341  and  _342
REMARK  139  A    between atoms: _341  and  _344
REMARK  140  A    between atoms: _344  and  _345
REMARK  141  A    between atoms: _348  and  _350
REMARK  142  A    between atoms: _350  and  _351
REMARK  143  A    between atoms: _353  and  _355
REMARK  144  A    between atoms: _355  and  _356
REMARK  145  A    between atoms: _355  and  _358
REMARK  146  A    between atoms: _358  and  _359
REMARK  147  A    between atoms: _362  and  _364
REMARK  148  A    between atoms: _364  and  _365
REMARK  149  A    between atoms: _368  and  _370
REMARK  150  A    between atoms: _370  and  _371
REMARK  151  A    between atoms: _370  and  _373
REMARK  152  A    between atoms: _373  and  _374
REMARK  153  A    between atoms: _377  and  _379
REMARK  154  A    between atoms: _379  and  _380
REMARK  155  A    between atoms: _379  and  _382
REMARK  156  A    between atoms: _382  and  _383
REMARK  157  A    between atoms: _385  and  _387
REMARK  158  A    between atoms: _387  and  _388
REMARK  159  A    between atoms: _391  and  _393
REMARK  160  A    between atoms: _393  and  _394
REMARK  161  A    between atoms: _393  and  _396
REMARK  162  A    between atoms: _399  and  _401
REMARK  163  A    between atoms: _401  and  _402
REMARK  164  A    between atoms: _401  and  _404
REMARK  165  A    between atoms: _404  and  _405
REMARK  166  A    between atoms: _407  and  _409
REMARK  167  A    between atoms: _409  and  _410
REMARK  168  A    between atoms: _409  and  _412
REMARK  169  A    between atoms: _412  and  _413
REMARK  170  A    between atoms: _418  and  _420
REMARK  171  A    between atoms: _420  and  _421
REMARK  172  A    between atoms: _420  and  _423
REMARK  173  A    between atoms: _423  and  _424
REMARK  174  A    between atoms: _427  and  _429
REMARK  175  A    between atoms: _429  and  _430
REMARK  176  A    between atoms: _429  and  _432
REMARK  177  A    between atoms: _432  and  _433
REMARK  178  A    between atoms: _436  and  _438
REMARK  179  A    between atoms: _438  and  _439
REMARK  180  A    between atoms: _441  and  _443
REMARK  181  A    between atoms: _443  and  _444
REMARK  182  A    between atoms: _447  and  _449
REMARK  183  A    between atoms: _449  and  _450
REMARK  184  A    between atoms: _449  and  _452
REMARK  185  A    between atoms: _455  and  _457
REMARK  186  A    between atoms: _457  and  _458
REMARK  187  A    between atoms: _457  and  _460
REMARK  188  A    between atoms: _460  and  _461
REMARK  189  A    between atoms: _464  and  _466
REMARK  190  A    between atoms: _466  and  _467
REMARK  191  A    between atoms: _466  and  _469
REMARK  192  A    between atoms: _469  and  _470
REMARK  193  A    between atoms: _470  and  _471
REMARK  194  A    between atoms: _474  and  _476
REMARK  195  A    between atoms: _476  and  _477
REMARK  196  A    between atoms: _476  and  _479
REMARK  197  A    between atoms: _479  and  _480
REMARK  198  A    between atoms: _480  and  _481
REMARK  199  A    between atoms: _486  and  _488
REMARK  200  A    between atoms: _488  and  _489
REMARK  201  A    between atoms: _488  and  _491
REMARK  202  A    between atoms: _491  and  _492
REMARK  203  A    between atoms: _492  and  _493
REMARK  204  A    between atoms: _498  and  _500
REMARK  205  A    between atoms: _500  and  _501
REMARK  206  A    between atoms: _500  and  _503
REMARK  207  A    between atoms: _503  and  _504
REMARK  208  A    between atoms: _504  and  _505
REMARK  209  A    between atoms: _508  and  _510
REMARK  210  A    between atoms: _510  and  _511
REMARK  211  A    between atoms: _510  and  _513
REMARK  212  A    between atoms: _513  and  _514
REMARK  213  A    between atoms: _519  and  _521
REMARK  214  A    between atoms: _521  and  _522
REMARK  215  A    between atoms: _521  and  _524
REMARK  216  A    between atoms: _524  and  _525
REMARK  217  A    between atoms: _528  and  _530
REMARK  218  A    between atoms: _530  and  _531
REMARK  219  A    between atoms: _530  and  _533
REMARK  220  A    between atoms: _533  and  _534
REMARK  221  A    between atoms: _537  and  _539
REMARK  222  A    between atoms: _539  and  _540
REMARK  223  A    between atoms: _543  and  _545
REMARK  224  A    between atoms: _545  and  _546
REMARK  225  A    between atoms: _545  and  _548
REMARK  226  A    between atoms: _548  and  _549
REMARK  227  A    between atoms: _552  and  _554
REMARK  228  A    between atoms: _554  and  _555
REMARK  229  A    between atoms: _554  and  _557
REMARK  230  A    between atoms: _557  and  _558
REMARK  231  A    between atoms: _558  and  _559
REMARK  232  A    between atoms: _564  and  _566
REMARK  233  A    between atoms: _566  and  _567
REMARK  234  A    between atoms: _566  and  _569
REMARK  235  A    between atoms: _569  and  _570
REMARK  236  A    between atoms: _573  and  _575
REMARK  237  A    between atoms: _575  and  _576
REMARK  238  A    between atoms: _575  and  _578
REMARK  239  A    between atoms: _578  and  _579
REMARK  240  A    between atoms: _579  and  _580
REMARK  241  A    between atoms: _582  and  _584
REMARK  242  A    between atoms: _584  and  _585
REMARK  243  A    between atoms: _584  and  _587
REMARK  244  A    between atoms: _587  and  _588
REMARK  245  A    between atoms: _591  and  _593
REMARK  246  A    between atoms: _593  and  _594
REMARK  247  A    between atoms: _593  and  _596
REMARK  248  A    between atoms: _596  and  _597
REMARK  249  A    between atoms: _600  and  _602
REMARK  250  A    between atoms: _602  and  _603
REMARK  251  A    between atoms: _602  and  _605
REMARK  252  A    between atoms: _605  and  _606
REMARK  253  A    between atoms: _609  and  _611
REMARK  254  A    between atoms: _611  and  _612
REMARK  255  A    between atoms: _614  and  _616
REMARK  256  A    between atoms: _616  and  _617
REMARK                            x       y       z     vdW  Elec       q    Type
REMARK                         _______ _______ _______ _____ _____    ______ ____
ROOT
ATOM      1 MG   UNL     1      23.919  36.611  31.156  0.00  0.00    +0.000 Mg
ATOM      2  O   UNL     1      24.940  36.518  32.578  0.00  0.00    +0.000 OA
ATOM      3  O   UNL     1      22.438  36.907  30.296  0.00  0.00    +0.000 OA
ENDROOT
TORSDOF 0
REMARK  Name = ../refined-set-2016/1ork/1ork_pocket.pdb
REMARK  256 active torsions:
REMARK  status: ('A' for Active; 'I' for Inactive)
REMARK    1  A    between atoms: _1  and  _3
REMARK    2  A    between atoms: _3  and  _4
REMARK    3  A    between atoms: _7  and  _9
REMARK    4  A    between atoms: _9  and  _10
REMARK    5  A    between atoms: _9  and  _12
REMARK    6  A    between atoms: _15  and  _17
REMARK    7  A    between atoms: _17  and  _18
REMARK    8  A    between atoms: _17  and  _20
REMARK    9  A    between atoms: _20  and  _21
REMARK   10  A    between atoms: _24  and  _26
REMARK   11  A    between atoms: _26  and  _27
REMARK   12  A    between atoms: _30  and  _32
REMARK   13  A    between atoms: _32  and  _33
REMARK   14  A    between atoms: _32  and  _35
REMARK   15  A    between atoms: _35  and  _36
REMARK   16  A    between atoms: _41  and  _43
REMARK   17  A    between atoms: _43  and  _44
REMARK   18  A    between atoms: _43  and  _46
REMARK   19  A    between atoms: _46  and  _47
REMARK   20  A    between atoms: _50  and  _52
REMARK   21  A    between atoms: _52  and  _53
REMARK   22  A    between atoms: _52  and  _55
REMARK   23  A    between atoms: _55  and  _56
REMARK   24  A    between atoms: _61  and  _62
REMARK   25  A    between atoms: _64  and  _66
REMARK   26  A    between atoms: _66  and  _67
REMARK   27  A    between atoms: _66  and  _69
REMARK   28  A    between atoms: _69  and  _70
REMARK   29  A    between atoms: _72  and  _74
REMARK   30  A    between atoms: _74  and  _75
REMARK   31  A    between atoms: _74  and  _77
REMARK   32  A    between atoms: _77  and  _78
REMARK   33  A    between atoms: _81  and  _83
REMARK   34  A    between atoms: _83  and  _84
REMARK   35  A    between atoms: _83  and  _86
REMARK   36  A    between atoms: _86  and  _87
REMARK   37  A    between atoms: _93  and  _95
REMARK   38  A    between atoms: _95  and  _96
REMARK   39  A    between atoms: _95  and  _98
REMARK   40  A    between atoms: _98  and  _99
REMARK   41  A    between atoms: _102  and  _104
REMARK   42  A    between atoms: _104  and  _105
REMARK   43  A    between atoms: _104  and  _107
REMARK   44  A    between atoms: _107  and  _108
REMARK   45  A    between atoms: _113  and  _115
REMARK   46  A    between atoms: _115  and  _116
REMARK   47  A    between atoms: _115  and  _118
REMARK   48  A    between atoms: _118  and  _119
REMARK   49  A    between atoms: _124  and  _126
REMARK   50  A    between atoms: _126  and  _127
REMARK   51  A    between atoms: _130  and  _132
REMARK   52  A    between atoms: _132  and  _133
REMARK   53  A    between atoms: _132  and  _135
REMARK   54  A    between atoms: _135  and  _136
REMARK   55  A    between atoms: _136  and  _137
REMARK   56  A    between atoms: _139  and  _141
REMARK   57  A    between atoms: _141  and  _142
REMARK   58  A    between atoms: _141  and  _144
REMARK   59  A    between atoms: _144  and  _145
REMARK   60  A    between atoms: _147  and  _149
REMARK   61  A    between atoms: _149  and  _150
REMARK   62  A    between atoms: _149  and  _152
REMARK   63  A    between atoms: _152  and  _153
REMARK   64  A    between atoms: _159  and  _161
REMARK   65  A    between atoms: _161  and  _162
REMARK   66  A    between atoms: _161  and  _164
REMARK   67  A    between atoms: _164  and  _165
REMARK   68  A    between atoms: _165  and  _166
REMARK   69  A    between atoms: _166  and  _167
REMARK   70  A    between atoms: _176  and  _178
REMARK   71  A    between atoms: _178  and  _179
REMARK   72  A    between atoms: _178  and  _181
REMARK   73  A    between atoms: _181  and  _182
REMARK   74  A    between atoms: _185  and  _187
REMARK   75  A    between atoms: _187  and  _188
REMARK   76  A    between atoms: _187  and  _190
REMARK   77  A    between atoms: _190  and  _191
REMARK   78  A    between atoms: _196  and  _198
REMARK   79  A    between atoms: _198  and  _199
REMARK   80  A    between atoms: _198  and  _201
REMARK   81  A    between atoms: _201  and  _202
REMARK   82  A    between atoms: _205  and  _207
REMARK   83  A    between atoms: _207  and  _208
REMARK   84  A    between atoms: _210  and  _212
REMARK   85  A    between atoms: _212  and  _213
REMARK   86  A    between atoms: _212  and  _215
REMARK   87  A    between atoms: _215  and  _216
REMARK   88  A    between atoms: _219  and  _221
REMARK   89  A    between atoms: _221  and  _222
REMARK   90  A    between atoms: _221  and  _224
REMARK   91  A    between atoms: _224  and  _225
REMARK   92  A    between atoms: _225  and  _226
REMARK   93  A    between atoms: _226  and  _227
REMARK   94  A    between atoms: _237  and  _238
REMARK   95  A    between atoms: _243  and  _245
REMARK   96  A    between atoms: _245  and  _246
REMARK   97  A    between atoms: _245  and  _248
REMARK   98  A    between atoms: _248  and  _249
REMARK   99  A    between atoms: _252  and  _254
REMARK  100  A    between atoms: _254  and  _255
REMARK  101  A    between atoms: _254  and  _257
REMARK  102  A    between atoms: _257  and  _258
REMARK  103  A    between atoms: _258  and  _259
REMARK  104  A    between atoms: _259  and  _260
REMARK  105  A    between atoms: _260  and  _261
REMARK  106  A    between atoms: _265  and  _267
REMARK  107  A    between atoms: _267  and  _268
REMARK  108  A    between atoms: _267  and  _270
REMARK  109  A    between atoms: _270  and  _271
REMARK  110  A    between atoms: _271  and  _272
REMARK  111  A    between atoms: _277  and  _279
REMARK  112  A    between atoms: _279  and  _280
REMARK  113  A    between atoms: _279  and  _282
REMARK  114  A    between atoms: _282  and  _283
REMARK  115  A    between atoms: _288  and  _289
REMARK  116  A    between atoms: _291  and  _293
REMARK  117  A    between atoms: _293  and  _294
REMARK  118  A    between atoms: _293  and  _296
REMARK  119  A    between atoms: _296  and  _297
REMARK  120  A    between atoms: _300  and  _302
REMARK  121  A    between atoms: _302  and  _303
REMARK  122  A    between atoms: _302  and  _305
REMARK  123  A    between atoms: _305  and  _306
REMARK  124  A    between atoms: _309  and  _311
REMARK  125  A    between atoms: _311  and  _312
REMARK  126  A    between atoms: _311  and  _314
REMARK  127  A    between atoms: _317  and  _319
REMARK  128  A    between atoms: _319  and  _320
REMARK  129  A    between atoms: _319  and  _322
REMARK  130  A    between atoms: _322  and  _323
REMARK  131  A    between atoms: _323  and  _324
REMARK  132  A    between atoms: _327  and  _329
REMARK  133  A    between atoms: _329  and  _330
REMARK  134  A    between atoms: _329  and  _332
REMARK  135  A    between atoms: _332  and  _333
REMARK  136  A    between atoms: _333  and  _334
REMARK  137  A    between atoms: _339  and  _341
REMARK  138  A    between atoms: _341  and  _342
REMARK  139  A    between atoms: _341  and  _344
REMARK  140  A    between atoms: _344  and  _345
REMARK  141  A    between atoms: _348  and  _350
REMARK  142  A    between atoms: _350  and  _351
REMARK  143  A    between atoms: _353  and  _355
REMARK  144  A    between atoms: _355  and  _356
REMARK  145  A    between atoms: _355  and  _358
REMARK  146  A    between atoms: _358  and  _359
REMARK  147  A    between atoms: _362  and  _364
REMARK  148  A    between atoms: _364  and  _365
REMARK  149  A    between atoms: _368  and  _370
REMARK  150  A    between atoms: _370  and  _371
REMARK  151  A    between atoms: _370  and  _373
REMARK  152  A    between atoms: _373  and  _374
REMARK  153  A    between atoms: _377  and  _379
REMARK  154  A    between atoms: _379  and  _380
REMARK  155  A    between atoms: _379  and  _382
REMARK  156  A    between atoms: _382  and  _383
REMARK  157  A    between atoms: _385  and  _387
REMARK  158  A    between atoms: _387  and  _388
REMARK  159  A    between atoms: _391  and  _393
REMARK  160  A    between atoms: _393  and  _394
REMARK  161  A    between atoms: _393  and  _396
REMARK  162  A    between atoms: _399  and  _401
REMARK  163  A    between atoms: _401  and  _402
REMARK  164  A    between atoms: _401  and  _404
REMARK  165  A    between atoms: _404  and  _405
REMARK  166  A    between atoms: _407  and  _409
REMARK  167  A    between atoms: _409  and  _410
REMARK  168  A    between atoms: _409  and  _412
REMARK  169  A    between atoms: _412  and  _413
REMARK  170  A    between atoms: _418  and  _420
REMARK  171  A    between atoms: _420  and  _421
REMARK  172  A    between atoms: _420  and  _423
REMARK  173  A    between atoms: _423  and  _424
REMARK  174  A    between atoms: _427  and  _429
REMARK  175  A    between atoms: _429  and  _430
REMARK  176  A    between atoms: _429  and  _432
REMARK  177  A    between atoms: _432  and  _433
REMARK  178  A    between atoms: _436  and  _438
REMARK  179  A    between atoms: _438  and  _439
REMARK  180  A    between atoms: _441  and  _443
REMARK  181  A    between atoms: _443  and  _444
REMARK  182  A    between atoms: _447  and  _449
REMARK  183  A    between atoms: _449  and  _450
REMARK  184  A    between atoms: _449  and  _452
REMARK  185  A    between atoms: _455  and  _457
REMARK  186  A    between atoms: _457  and  _458
REMARK  187  A    between atoms: _457  and  _460
REMARK  188  A    between atoms: _460  and  _461
REMARK  189  A    between atoms: _464  and  _466
REMARK  190  A    between atoms: _466  and  _467
REMARK  191  A    between atoms: _466  and  _469
REMARK  192  A    between atoms: _469  and  _470
REMARK  193  A    between atoms: _470  and  _471
REMARK  194  A    between atoms: _474  and  _476
REMARK  195  A    between atoms: _476  and  _477
REMARK  196  A    between atoms: _476  and  _479
REMARK  197  A    between atoms: _479  and  _480
REMARK  198  A    between atoms: _480  and  _481
REMARK  199  A    between atoms: _486  and  _488
REMARK  200  A    between atoms: _488  and  _489
REMARK  201  A    between atoms: _488  and  _491
REMARK  202  A    between atoms: _491  and  _492
REMARK  203  A    between atoms: _492  and  _493
REMARK  204  A    between atoms: _498  and  _500
REMARK  205  A    between atoms: _500  and  _501
REMARK  206  A    between atoms: _500  and  _503
REMARK  207  A    between atoms: _503  and  _504
REMARK  208  A    between atoms: _504  and  _505
REMARK  209  A    between atoms: _508  and  _510
REMARK  210  A    between atoms: _510  and  _511
REMARK  211  A    between atoms: _510  and  _513
REMARK  212  A    between atoms: _513  and  _514
REMARK  213  A    between atoms: _519  and  _521
REMARK  214  A    between atoms: _521  and  _522
REMARK  215  A    between atoms: _521  and  _524
REMARK  216  A    between atoms: _524  and  _525
REMARK  217  A    between atoms: _528  and  _530
REMARK  218  A    between atoms: _530  and  _531
REMARK  219  A    between atoms: _530  and  _533
REMARK  220  A    between atoms: _533  and  _534
REMARK  221  A    between atoms: _537  and  _539
REMARK  222  A    between atoms: _539  and  _540
REMARK  223  A    between atoms: _543  and  _545
REMARK  224  A    between atoms: _545  and  _546
REMARK  225  A    between atoms: _545  and  _548
REMARK  226  A    between atoms: _548  and  _549
REMARK  227  A    between atoms: _552  and  _554
REMARK  228  A    between atoms: _554  and  _555
REMARK  229  A    between atoms: _554  and  _557
REMARK  230  A    between atoms: _557  and  _558
REMARK  231  A    between atoms: _558  and  _559
REMARK  232  A    between atoms: _564  and  _566
REMARK  233  A    between atoms: _566  and  _567
REMARK  234  A    between atoms: _566  and  _569
REMARK  235  A    between atoms: _569  and  _570
REMARK  236  A    between atoms: _573  and  _575
REMARK  237  A    between atoms: _575  and  _576
REMARK  238  A    between atoms: _575  and  _578
REMARK  239  A    between atoms: _578  and  _579
REMARK  240  A    between atoms: _579  and  _580
REMARK  241  A    between atoms: _582  and  _584
REMARK  242  A    between atoms: _584  and  _585
REMARK  243  A    between atoms: _584  and  _587
REMARK  244  A    between atoms: _587  and  _588
REMARK  245  A    between atoms: _591  and  _593
REMARK  246  A    between atoms: _593  and  _594
REMARK  247  A    between atoms: _593  and  _596
REMARK  248  A    between atoms: _596  and  _597
REMARK  249  A    between atoms: _600  and  _602
REMARK  250  A    between atoms: _602  and  _603
REMARK  251  A    between atoms: _602  and  _605
REMARK  252  A    between atoms: _605  and  _606
REMARK  253  A    between atoms: _609  and  _611
REMARK  254  A    between atoms: _611  and  _612
REMARK  255  A    between atoms: _614  and  _616
REMARK  256  A    between atoms: _616  and  _617
REMARK                            x       y       z     vdW  Elec       q    Type
REMARK                         _______ _______ _______ _____ _____    ______ ____
ROOT
ATOM      1  O   HOH     1      24.945  37.436  29.970  0.00  0.00    +0.000 OA
ENDROOT
TORSDOF 0
REMARK  Name = ../refined-set-2016/1ork/1ork_pocket.pdb
REMARK  256 active torsions:
REMARK  status: ('A' for Active; 'I' for Inactive)
REMARK    1  A    between atoms: _1  and  _3
REMARK    2  A    between atoms: _3  and  _4
REMARK    3  A    between atoms: _7  and  _9
REMARK    4  A    between atoms: _9  and  _10
REMARK    5  A    between atoms: _9  and  _12
REMARK    6  A    between atoms: _15  and  _17
REMARK    7  A    between atoms: _17  and  _18
REMARK    8  A    between atoms: _17  and  _20
REMARK    9  A    between atoms: _20  and  _21
REMARK   10  A    between atoms: _24  and  _26
REMARK   11  A    between atoms: _26  and  _27
REMARK   12  A    between atoms: _30  and  _32
REMARK   13  A    between atoms: _32  and  _33
REMARK   14  A    between atoms: _32  and  _35
REMARK   15  A    between atoms: _35  and  _36
REMARK   16  A    between atoms: _41  and  _43
REMARK   17  A    between atoms: _43  and  _44
REMARK   18  A    between atoms: _43  and  _46
REMARK   19  A    between atoms: _46  and  _47
REMARK   20  A    between atoms: _50  and  _52
REMARK   21  A    between atoms: _52  and  _53
REMARK   22  A    between atoms: _52  and  _55
REMARK   23  A    between atoms: _55  and  _56
REMARK   24  A    between atoms: _61  and  _62
REMARK   25  A    between atoms: _64  and  _66
REMARK   26  A    between atoms: _66  and  _67
REMARK   27  A    between atoms: _66  and  _69
REMARK   28  A    between atoms: _69  and  _70
REMARK   29  A    between atoms: _72  and  _74
REMARK   30  A    between atoms: _74  and  _75
REMARK   31  A    between atoms: _74  and  _77
REMARK   32  A    between atoms: _77  and  _78
REMARK   33  A    between atoms: _81  and  _83
REMARK   34  A    between atoms: _83  and  _84
REMARK   35  A    between atoms: _83  and  _86
REMARK   36  A    between atoms: _86  and  _87
REMARK   37  A    between atoms: _93  and  _95
REMARK   38  A    between atoms: _95  and  _96
REMARK   39  A    between atoms: _95  and  _98
REMARK   40  A    between atoms: _98  and  _99
REMARK   41  A    between atoms: _102  and  _104
REMARK   42  A    between atoms: _104  and  _105
REMARK   43  A    between atoms: _104  and  _107
REMARK   44  A    between atoms: _107  and  _108
REMARK   45  A    between atoms: _113  and  _115
REMARK   46  A    between atoms: _115  and  _116
REMARK   47  A    between atoms: _115  and  _118
REMARK   48  A    between atoms: _118  and  _119
REMARK   49  A    between atoms: _124  and  _126
REMARK   50  A    between atoms: _126  and  _127
REMARK   51  A    between atoms: _130  and  _132
REMARK   52  A    between atoms: _132  and  _133
REMARK   53  A    between atoms: _132  and  _135
REMARK   54  A    between atoms: _135  and  _136
REMARK   55  A    between atoms: _136  and  _137
REMARK   56  A    between atoms: _139  and  _141
REMARK   57  A    between atoms: _141  and  _142
REMARK   58  A    between atoms: _141  and  _144
REMARK   59  A    between atoms: _144  and  _145
REMARK   60  A    between atoms: _147  and  _149
REMARK   61  A    between atoms: _149  and  _150
REMARK   62  A    between atoms: _149  and  _152
REMARK   63  A    between atoms: _152  and  _153
REMARK   64  A    between atoms: _159  and  _161
REMARK   65  A    between atoms: _161  and  _162
REMARK   66  A    between atoms: _161  and  _164
REMARK   67  A    between atoms: _164  and  _165
REMARK   68  A    between atoms: _165  and  _166
REMARK   69  A    between atoms: _166  and  _167
REMARK   70  A    between atoms: _176  and  _178
REMARK   71  A    between atoms: _178  and  _179
REMARK   72  A    between atoms: _178  and  _181
REMARK   73  A    between atoms: _181  and  _182
REMARK   74  A    between atoms: _185  and  _187
REMARK   75  A    between atoms: _187  and  _188
REMARK   76  A    between atoms: _187  and  _190
REMARK   77  A    between atoms: _190  and  _191
REMARK   78  A    between atoms: _196  and  _198
REMARK   79  A    between atoms: _198  and  _199
REMARK   80  A    between atoms: _198  and  _201
REMARK   81  A    between atoms: _201  and  _202
REMARK   82  A    between atoms: _205  and  _207
REMARK   83  A    between atoms: _207  and  _208
REMARK   84  A    between atoms: _210  and  _212
REMARK   85  A    between atoms: _212  and  _213
REMARK   86  A    between atoms: _212  and  _215
REMARK   87  A    between atoms: _215  and  _216
REMARK   88  A    between atoms: _219  and  _221
REMARK   89  A    between atoms: _221  and  _222
REMARK   90  A    between atoms: _221  and  _224
REMARK   91  A    between atoms: _224  and  _225
REMARK   92  A    between atoms: _225  and  _226
REMARK   93  A    between atoms: _226  and  _227
REMARK   94  A    between atoms: _237  and  _238
REMARK   95  A    between atoms: _243  and  _245
REMARK   96  A    between atoms: _245  and  _246
REMARK   97  A    between atoms: _245  and  _248
REMARK   98  A    between atoms: _248  and  _249
REMARK   99  A    between atoms: _252  and  _254
REMARK  100  A    between atoms: _254  and  _255
REMARK  101  A    between atoms: _254  and  _257
REMARK  102  A    between atoms: _257  and  _258
REMARK  103  A    between atoms: _258  and  _259
REMARK  104  A    between atoms: _259  and  _260
REMARK  105  A    between atoms: _260  and  _261
REMARK  106  A    between atoms: _265  and  _267
REMARK  107  A    between atoms: _267  and  _268
REMARK  108  A    between atoms: _267  and  _270
REMARK  109  A    between atoms: _270  and  _271
REMARK  110  A    between atoms: _271  and  _272
REMARK  111  A    between atoms: _277  and  _279
REMARK  112  A    between atoms: _279  and  _280
REMARK  113  A    between atoms: _279  and  _282
REMARK  114  A    between atoms: _282  and  _283
REMARK  115  A    between atoms: _288  and  _289
REMARK  116  A    between atoms: _291  and  _293
REMARK  117  A    between atoms: _293  and  _294
REMARK  118  A    between atoms: _293  and  _296
REMARK  119  A    between atoms: _296  and  _297
REMARK  120  A    between atoms: _300  and  _302
REMARK  121  A    between atoms: _302  and  _303
REMARK  122  A    between atoms: _302  and  _305
REMARK  123  A    between atoms: _305  and  _306
REMARK  124  A    between atoms: _309  and  _311
REMARK  125  A    between atoms: _311  and  _312
REMARK  126  A    between atoms: _311  and  _314
REMARK  127  A    between atoms: _317  and  _319
REMARK  128  A    between atoms: _319  and  _320
REMARK  129  A    between atoms: _319  and  _322
REMARK  130  A    between atoms: _322  and  _323
REMARK  131  A    between atoms: _323  and  _324
REMARK  132  A    between atoms: _327  and  _329
REMARK  133  A    between atoms: _329  and  _330
REMARK  134  A    between atoms: _329  and  _332
REMARK  135  A    between atoms: _332  and  _333
REMARK  136  A    between atoms: _333  and  _334
REMARK  137  A    between atoms: _339  and  _341
REMARK  138  A    between atoms: _341  and  _342
REMARK  139  A    between atoms: _341  and  _344
REMARK  140  A    between atoms: _344  and  _345
REMARK  141  A    between atoms: _348  and  _350
REMARK  142  A    between atoms: _350  and  _351
REMARK  143  A    between atoms: _353  and  _355
REMARK  144  A    between atoms: _355  and  _356
REMARK  145  A    between atoms: _355  and  _358
REMARK  146  A    between atoms: _358  and  _359
REMARK  147  A    between atoms: _362  and  _364
REMARK  148  A    between atoms: _364  and  _365
REMARK  149  A    between atoms: _368  and  _370
REMARK  150  A    between atoms: _370  and  _371
REMARK  151  A    between atoms: _370  and  _373
REMARK  152  A    between atoms: _373  and  _374
REMARK  153  A    between atoms: _377  and  _379
REMARK  154  A    between atoms: _379  and  _380
REMARK  155  A    between atoms: _379  and  _382
REMARK  156  A    between atoms: _382  and  _383
REMARK  157  A    between atoms: _385  and  _387
REMARK  158  A    between atoms: _387  and  _388
REMARK  159  A    between atoms: _391  and  _393
REMARK  160  A    between atoms: _393  and  _394
REMARK  161  A    between atoms: _393  and  _396
REMARK  162  A    between atoms: _399  and  _401
REMARK  163  A    between atoms: _401  and  _402
REMARK  164  A    between atoms: _401  and  _404
REMARK  165  A    between atoms: _404  and  _405
REMARK  166  A    between atoms: _407  and  _409
REMARK  167  A    between atoms: _409  and  _410
REMARK  168  A    between atoms: _409  and  _412
REMARK  169  A    between atoms: _412  and  _413
REMARK  170  A    between atoms: _418  and  _420
REMARK  171  A    between atoms: _420  and  _421
REMARK  172  A    between atoms: _420  and  _423
REMARK  173  A    between atoms: _423  and  _424
REMARK  174  A    between atoms: _427  and  _429
REMARK  175  A    between atoms: _429  and  _430
REMARK  176  A    between atoms: _429  and  _432
REMARK  177  A    between atoms: _432  and  _433
REMARK  178  A    between atoms: _436  and  _438
REMARK  179  A    between atoms: _438  and  _439
REMARK  180  A    between atoms: _441  and  _443
REMARK  181  A    between atoms: _443  and  _444
REMARK  182  A    between atoms: _447  and  _449
REMARK  183  A    between atoms: _449  and  _450
REMARK  184  A    between atoms: _449  and  _452
REMARK  185  A    between atoms: _455  and  _457
REMARK  186  A    between atoms: _457  and  _458
REMARK  187  A    between atoms: _457  and  _460
REMARK  188  A    between atoms: _460  and  _461
REMARK  189  A    between atoms: _464  and  _466
REMARK  190  A    between atoms: _466  and  _467
REMARK  191  A    between atoms: _466  and  _469
REMARK  192  A    between atoms: _469  and  _470
REMARK  193  A    between atoms: _470  and  _471
REMARK  194  A    between atoms: _474  and  _476
REMARK  195  A    between atoms: _476  and  _477
REMARK  196  A    between atoms: _476  and  _479
REMARK  197  A    between atoms: _479  and  _480
REMARK  198  A    between atoms: _480  and  _481
REMARK  199  A    between atoms: _486  and  _488
REMARK  200  A    between atoms: _488  and  _489
REMARK  201  A    between atoms: _488  and  _491
REMARK  202  A    between atoms: _491  and  _492
REMARK  203  A    between atoms: _492  and  _493
REMARK  204  A    between atoms: _498  and  _500
REMARK  205  A    between atoms: _500  and  _501
REMARK  206  A    between atoms: _500  and  _503
REMARK  207  A    between atoms: _503  and  _504
REMARK  208  A    between atoms: _504  and  _505
REMARK  209  A    between atoms: _508  and  _510
REMARK  210  A    between atoms: _510  and  _511
REMARK  211  A    between atoms: _510  and  _513
REMARK  212  A    between atoms: _513  and  _514
REMARK  213  A    between atoms: _519  and  _521
REMARK  214  A    between atoms: _521  and  _522
REMARK  215  A    between atoms: _521  and  _524
REMARK  216  A    between atoms: _524  and  _525
REMARK  217  A    between atoms: _528  and  _530
REMARK  218  A    between atoms: _530  and  _531
REMARK  219  A    between atoms: _530  and  _533
REMARK  220  A    between atoms: _533  and  _534
REMARK  221  A    between atoms: _537  and  _539
REMARK  222  A    between atoms: _539  and  _540
REMARK  223  A    between atoms: _543  and  _545
REMARK  224  A    between atoms: _545  and  _546
REMARK  225  A    between atoms: _545  and  _548
REMARK  226  A    between atoms: _548  and  _549
REMARK  227  A    between atoms: _552  and  _554
REMARK  228  A    between atoms: _554  and  _555
REMARK  229  A    between atoms: _554  and  _557
REMARK  230  A    between atoms: _557  and  _558
REMARK  231  A    between atoms: _558  and  _559
REMARK  232  A    between atoms: _564  and  _566
REMARK  233  A    between atoms: _566  and  _567
REMARK  234  A    between atoms: _566  and  _569
REMARK  235  A    between atoms: _569  and  _570
REMARK  236  A    between atoms: _573  and  _575
REMARK  237  A    between atoms: _575  and  _576
REMARK  238  A    between atoms: _575  and  _578
REMARK  239  A    between atoms: _578  and  _579
REMARK  240  A    between atoms: _579  and  _580
REMARK  241  A    between atoms: _582  and  _584
REMARK  242  A    between atoms: _584  and  _585
REMARK  243  A    between atoms: _584  and  _587
REMARK  244  A    between atoms: _587  and  _588
REMARK  245  A    between atoms: _591  and  _593
REMARK  246  A    between atoms: _593  and  _594
REMARK  247  A    between atoms: _593  and  _596
REMARK  248  A    between atoms: _596  and  _597
REMARK  249  A    between atoms: _600  and  _602
REMARK  250  A    between atoms: _602  and  _603
REMARK  251  A    between atoms: _602  and  _605
REMARK  252  A    between atoms: _605  and  _606
REMARK  253  A    between atoms: _609  and  _611
REMARK  254  A    between atoms: _611  and  _612
REMARK  255  A    between atoms: _614  and  _616
REMARK  256  A    between atoms: _616  and  _617
REMARK                            x       y       z     vdW  Elec       q    Type
REMARK                         _______ _______ _______ _____ _____    ______ ____
ROOT
ATOM      1  O   HOH     1      19.907  36.420  30.599  0.00  0.00    +0.000 OA
ENDROOT
TORSDOF 0
REMARK  Name = ../refined-set-2016/1ork/1ork_pocket.pdb
REMARK  256 active torsions:
REMARK  status: ('A' for Active; 'I' for Inactive)
REMARK    1  A    between atoms: _1  and  _3
REMARK    2  A    between atoms: _3  and  _4
REMARK    3  A    between atoms: _7  and  _9
REMARK    4  A    between atoms: _9  and  _10
REMARK    5  A    between atoms: _9  and  _12
REMARK    6  A    between atoms: _15  and  _17
REMARK    7  A    between atoms: _17  and  _18
REMARK    8  A    between atoms: _17  and  _20
REMARK    9  A    between atoms: _20  and  _21
REMARK   10  A    between atoms: _24  and  _26
REMARK   11  A    between atoms: _26  and  _27
REMARK   12  A    between atoms: _30  and  _32
REMARK   13  A    between atoms: _32  and  _33
REMARK   14  A    between atoms: _32  and  _35
REMARK   15  A    between atoms: _35  and  _36
REMARK   16  A    between atoms: _41  and  _43
REMARK   17  A    between atoms: _43  and  _44
REMARK   18  A    between atoms: _43  and  _46
REMARK   19  A    between atoms: _46  and  _47
REMARK   20  A    between atoms: _50  and  _52
REMARK   21  A    between atoms: _52  and  _53
REMARK   22  A    between atoms: _52  and  _55
REMARK   23  A    between atoms: _55  and  _56
REMARK   24  A    between atoms: _61  and  _62
REMARK   25  A    between atoms: _64  and  _66
REMARK   26  A    between atoms: _66  and  _67
REMARK   27  A    between atoms: _66  and  _69
REMARK   28  A    between atoms: _69  and  _70
REMARK   29  A    between atoms: _72  and  _74
REMARK   30  A    between atoms: _74  and  _75
REMARK   31  A    between atoms: _74  and  _77
REMARK   32  A    between atoms: _77  and  _78
REMARK   33  A    between atoms: _81  and  _83
REMARK   34  A    between atoms: _83  and  _84
REMARK   35  A    between atoms: _83  and  _86
REMARK   36  A    between atoms: _86  and  _87
REMARK   37  A    between atoms: _93  and  _95
REMARK   38  A    between atoms: _95  and  _96
REMARK   39  A    between atoms: _95  and  _98
REMARK   40  A    between atoms: _98  and  _99
REMARK   41  A    between atoms: _102  and  _104
REMARK   42  A    between atoms: _104  and  _105
REMARK   43  A    between atoms: _104  and  _107
REMARK   44  A    between atoms: _107  and  _108
REMARK   45  A    between atoms: _113  and  _115
REMARK   46  A    between atoms: _115  and  _116
REMARK   47  A    between atoms: _115  and  _118
REMARK   48  A    between atoms: _118  and  _119
REMARK   49  A    between atoms: _124  and  _126
REMARK   50  A    between atoms: _126  and  _127
REMARK   51  A    between atoms: _130  and  _132
REMARK   52  A    between atoms: _132  and  _133
REMARK   53  A    between atoms: _132  and  _135
REMARK   54  A    between atoms: _135  and  _136
REMARK   55  A    between atoms: _136  and  _137
REMARK   56  A    between atoms: _139  and  _141
REMARK   57  A    between atoms: _141  and  _142
REMARK   58  A    between atoms: _141  and  _144
REMARK   59  A    between atoms: _144  and  _145
REMARK   60  A    between atoms: _147  and  _149
REMARK   61  A    between atoms: _149  and  _150
REMARK   62  A    between atoms: _149  and  _152
REMARK   63  A    between atoms: _152  and  _153
REMARK   64  A    between atoms: _159  and  _161
REMARK   65  A    between atoms: _161  and  _162
REMARK   66  A    between atoms: _161  and  _164
REMARK   67  A    between atoms: _164  and  _165
REMARK   68  A    between atoms: _165  and  _166
REMARK   69  A    between atoms: _166  and  _167
REMARK   70  A    between atoms: _176  and  _178
REMARK   71  A    between atoms: _178  and  _179
REMARK   72  A    between atoms: _178  and  _181
REMARK   73  A    between atoms: _181  and  _182
REMARK   74  A    between atoms: _185  and  _187
REMARK   75  A    between atoms: _187  and  _188
REMARK   76  A    between atoms: _187  and  _190
REMARK   77  A    between atoms: _190  and  _191
REMARK   78  A    between atoms: _196  and  _198
REMARK   79  A    between atoms: _198  and  _199
REMARK   80  A    between atoms: _198  and  _201
REMARK   81  A    between atoms: _201  and  _202
REMARK   82  A    between atoms: _205  and  _207
REMARK   83  A    between atoms: _207  and  _208
REMARK   84  A    between atoms: _210  and  _212
REMARK   85  A    between atoms: _212  and  _213
REMARK   86  A    between atoms: _212  and  _215
REMARK   87  A    between atoms: _215  and  _216
REMARK   88  A    between atoms: _219  and  _221
REMARK   89  A    between atoms: _221  and  _222
REMARK   90  A    between atoms: _221  and  _224
REMARK   91  A    between atoms: _224  and  _225
REMARK   92  A    between atoms: _225  and  _226
REMARK   93  A    between atoms: _226  and  _227
REMARK   94  A    between atoms: _237  and  _238
REMARK   95  A    between atoms: _243  and  _245
REMARK   96  A    between atoms: _245  and  _246
REMARK   97  A    between atoms: _245  and  _248
REMARK   98  A    between atoms: _248  and  _249
REMARK   99  A    between atoms: _252  and  _254
REMARK  100  A    between atoms: _254  and  _255
REMARK  101  A    between atoms: _254  and  _257
REMARK  102  A    between atoms: _257  and  _258
REMARK  103  A    between atoms: _258  and  _259
REMARK  104  A    between atoms: _259  and  _260
REMARK  105  A    between atoms: _260  and  _261
REMARK  106  A    between atoms: _265  and  _267
REMARK  107  A    between atoms: _267  and  _268
REMARK  108  A    between atoms: _267  and  _270
REMARK  109  A    between atoms: _270  and  _271
REMARK  110  A    between atoms: _271  and  _272
REMARK  111  A    between atoms: _277  and  _279
REMARK  112  A    between atoms: _279  and  _280
REMARK  113  A    between atoms: _279  and  _282
REMARK  114  A    between atoms: _282  and  _283
REMARK  115  A    between atoms: _288  and  _289
REMARK  116  A    between atoms: _291  and  _293
REMARK  117  A    between atoms: _293  and  _294
REMARK  118  A    between atoms: _293  and  _296
REMARK  119  A    between atoms: _296  and  _297
REMARK  120  A    between atoms: _300  and  _302
REMARK  121  A    between atoms: _302  and  _303
REMARK  122  A    between atoms: _302  and  _305
REMARK  123  A    between atoms: _305  and  _306
REMARK  124  A    between atoms: _309  and  _311
REMARK  125  A    between atoms: _311  and  _312
REMARK  126  A    between atoms: _311  and  _314
REMARK  127  A    between atoms: _317  and  _319
REMARK  128  A    between atoms: _319  and  _320
REMARK  129  A    between atoms: _319  and  _322
REMARK  130  A    between atoms: _322  and  _323
REMARK  131  A    between atoms: _323  and  _324
REMARK  132  A    between atoms: _327  and  _329
REMARK  133  A    between atoms: _329  and  _330
REMARK  134  A    between atoms: _329  and  _332
REMARK  135  A    between atoms: _332  and  _333
REMARK  136  A    between atoms: _333  and  _334
REMARK  137  A    between atoms: _339  and  _341
REMARK  138  A    between atoms: _341  and  _342
REMARK  139  A    between atoms: _341  and  _344
REMARK  140  A    between atoms: _344  and  _345
REMARK  141  A    between atoms: _348  and  _350
REMARK  142  A    between atoms: _350  and  _351
REMARK  143  A    between atoms: _353  and  _355
REMARK  144  A    between atoms: _355  and  _356
REMARK  145  A    between atoms: _355  and  _358
REMARK  146  A    between atoms: _358  and  _359
REMARK  147  A    between atoms: _362  and  _364
REMARK  148  A    between atoms: _364  and  _365
REMARK  149  A    between atoms: _368  and  _370
REMARK  150  A    between atoms: _370  and  _371
REMARK  151  A    between atoms: _370  and  _373
REMARK  152  A    between atoms: _373  and  _374
REMARK  153  A    between atoms: _377  and  _379
REMARK  154  A    between atoms: _379  and  _380
REMARK  155  A    between atoms: _379  and  _382
REMARK  156  A    between atoms: _382  and  _383
REMARK  157  A    between atoms: _385  and  _387
REMARK  158  A    between atoms: _387  and  _388
REMARK  159  A    between atoms: _391  and  _393
REMARK  160  A    between atoms: _393  and  _394
REMARK  161  A    between atoms: _393  and  _396
REMARK  162  A    between atoms: _399  and  _401
REMARK  163  A    between atoms: _401  and  _402
REMARK  164  A    between atoms: _401  and  _404
REMARK  165  A    between atoms: _404  and  _405
REMARK  166  A    between atoms: _407  and  _409
REMARK  167  A    between atoms: _409  and  _410
REMARK  168  A    between atoms: _409  and  _412
REMARK  169  A    between atoms: _412  and  _413
REMARK  170  A    between atoms: _418  and  _420
REMARK  171  A    between atoms: _420  and  _421
REMARK  172  A    between atoms: _420  and  _423
REMARK  173  A    between atoms: _423  and  _424
REMARK  174  A    between atoms: _427  and  _429
REMARK  175  A    between atoms: _429  and  _430
REMARK  176  A    between atoms: _429  and  _432
REMARK  177  A    between atoms: _432  and  _433
REMARK  178  A    between atoms: _436  and  _438
REMARK  179  A    between atoms: _438  and  _439
REMARK  180  A    between atoms: _441  and  _443
REMARK  181  A    between atoms: _443  and  _444
REMARK  182  A    between atoms: _447  and  _449
REMARK  183  A    between atoms: _449  and  _450
REMARK  184  A    between atoms: _449  and  _452
REMARK  185  A    between atoms: _455  and  _457
REMARK  186  A    between atoms: _457  and  _458
REMARK  187  A    between atoms: _457  and  _460
REMARK  188  A    between atoms: _460  and  _461
REMARK  189  A    between atoms: _464  and  _466
REMARK  190  A    between atoms: _466  and  _467
REMARK  191  A    between atoms: _466  and  _469
REMARK  192  A    between atoms: _469  and  _470
REMARK  193  A    between atoms: _470  and  _471
REMARK  194  A    between atoms: _474  and  _476
REMARK  195  A    between atoms: _476  and  _477
REMARK  196  A    between atoms: _476  and  _479
REMARK  197  A    between atoms: _479  and  _480
REMARK  198  A    between atoms: _480  and  _481
REMARK  199  A    between atoms: _486  and  _488
REMARK  200  A    between atoms: _488  and  _489
REMARK  201  A    between atoms: _488  and  _491
REMARK  202  A    between atoms: _491  and  _492
REMARK  203  A    between atoms: _492  and  _493
REMARK  204  A    between atoms: _498  and  _500
REMARK  205  A    between atoms: _500  and  _501
REMARK  206  A    between atoms: _500  and  _503
REMARK  207  A    between atoms: _503  and  _504
REMARK  208  A    between atoms: _504  and  _505
REMARK  209  A    between atoms: _508  and  _510
REMARK  210  A    between atoms: _510  and  _511
REMARK  211  A    between atoms: _510  and  _513
REMARK  212  A    between atoms: _513  and  _514
REMARK  213  A    between atoms: _519  and  _521
REMARK  214  A    between atoms: _521  and  _522
REMARK  215  A    between atoms: _521  and  _524
REMARK  216  A    between atoms: _524  and  _525
REMARK  217  A    between atoms: _528  and  _530
REMARK  218  A    between atoms: _530  and  _531
REMARK  219  A    between atoms: _530  and  _533
REMARK  220  A    between atoms: _533  and  _534
REMARK  221  A    between atoms: _537  and  _539
REMARK  222  A    between atoms: _539  and  _540
REMARK  223  A    between atoms: _543  and  _545
REMARK  224  A    between atoms: _545  and  _546
REMARK  225  A    between atoms: _545  and  _548
REMARK  226  A    between atoms: _548  and  _549
REMARK  227  A    between atoms: _552  and  _554
REMARK  228  A    between atoms: _554  and  _555
REMARK  229  A    between atoms: _554  and  _557
REMARK  230  A    between atoms: _557  and  _558
REMARK  231  A    between atoms: _558  and  _559
REMARK  232  A    between atoms: _564  and  _566
REMARK  233  A    between atoms: _566  and  _567
REMARK  234  A    between atoms: _566  and  _569
REMARK  235  A    between atoms: _569  and  _570
REMARK  236  A    between atoms: _573  and  _575
REMARK  237  A    between atoms: _575  and  _576
REMARK  238  A    between atoms: _575  and  _578
REMARK  239  A    between atoms: _578  and  _579
REMARK  240  A    between atoms: _579  and  _580
REMARK  241  A    between atoms: _582  and  _584
REMARK  242  A    between atoms: _584  and  _585
REMARK  243  A    between atoms: _584  and  _587
REMARK  244  A    between atoms: _587  and  _588
REMARK  245  A    between atoms: _591  and  _593
REMARK  246  A    between atoms: _593  and  _594
REMARK  247  A    between atoms: _593  and  _596
REMARK  248  A    between atoms: _596  and  _597
REMARK  249  A    between atoms: _600  and  _602
REMARK  250  A    between atoms: _602  and  _603
REMARK  251  A    between atoms: _602  and  _605
REMARK  252  A    between atoms: _605  and  _606
REMARK  253  A    between atoms: _609  and  _611
REMARK  254  A    between atoms: _611  and  _612
REMARK  255  A    between atoms: _614  and  _616
REMARK  256  A    between atoms: _616  and  _617
REMARK                            x       y       z     vdW  Elec       q    Type
REMARK                         _______ _______ _______ _____ _____    ______ ____
ROOT
ATOM      1  O   HOH     1      31.855  41.517  38.259  0.00  0.00    +0.000 OA
ENDROOT
TORSDOF 0
REMARK  Name = ../refined-set-2016/1ork/1ork_pocket.pdb
REMARK  256 active torsions:
REMARK  status: ('A' for Active; 'I' for Inactive)
REMARK    1  A    between atoms: _1  and  _3
REMARK    2  A    between atoms: _3  and  _4
REMARK    3  A    between atoms: _7  and  _9
REMARK    4  A    between atoms: _9  and  _10
REMARK    5  A    between atoms: _9  and  _12
REMARK    6  A    between atoms: _15  and  _17
REMARK    7  A    between atoms: _17  and  _18
REMARK    8  A    between atoms: _17  and  _20
REMARK    9  A    between atoms: _20  and  _21
REMARK   10  A    between atoms: _24  and  _26
REMARK   11  A    between atoms: _26  and  _27
REMARK   12  A    between atoms: _30  and  _32
REMARK   13  A    between atoms: _32  and  _33
REMARK   14  A    between atoms: _32  and  _35
REMARK   15  A    between atoms: _35  and  _36
REMARK   16  A    between atoms: _41  and  _43
REMARK   17  A    between atoms: _43  and  _44
REMARK   18  A    between atoms: _43  and  _46
REMARK   19  A    between atoms: _46  and  _47
REMARK   20  A    between atoms: _50  and  _52
REMARK   21  A    between atoms: _52  and  _53
REMARK   22  A    between atoms: _52  and  _55
REMARK   23  A    between atoms: _55  and  _56
REMARK   24  A    between atoms: _61  and  _62
REMARK   25  A    between atoms: _64  and  _66
REMARK   26  A    between atoms: _66  and  _67
REMARK   27  A    between atoms: _66  and  _69
REMARK   28  A    between atoms: _69  and  _70
REMARK   29  A    between atoms: _72  and  _74
REMARK   30  A    between atoms: _74  and  _75
REMARK   31  A    between atoms: _74  and  _77
REMARK   32  A    between atoms: _77  and  _78
REMARK   33  A    between atoms: _81  and  _83
REMARK   34  A    between atoms: _83  and  _84
REMARK   35  A    between atoms: _83  and  _86
REMARK   36  A    between atoms: _86  and  _87
REMARK   37  A    between atoms: _93  and  _95
REMARK   38  A    between atoms: _95  and  _96
REMARK   39  A    between atoms: _95  and  _98
REMARK   40  A    between atoms: _98  and  _99
REMARK   41  A    between atoms: _102  and  _104
REMARK   42  A    between atoms: _104  and  _105
REMARK   43  A    between atoms: _104  and  _107
REMARK   44  A    between atoms: _107  and  _108
REMARK   45  A    between atoms: _113  and  _115
REMARK   46  A    between atoms: _115  and  _116
REMARK   47  A    between atoms: _115  and  _118
REMARK   48  A    between atoms: _118  and  _119
REMARK   49  A    between atoms: _124  and  _126
REMARK   50  A    between atoms: _126  and  _127
REMARK   51  A    between atoms: _130  and  _132
REMARK   52  A    between atoms: _132  and  _133
REMARK   53  A    between atoms: _132  and  _135
REMARK   54  A    between atoms: _135  and  _136
REMARK   55  A    between atoms: _136  and  _137
REMARK   56  A    between atoms: _139  and  _141
REMARK   57  A    between atoms: _141  and  _142
REMARK   58  A    between atoms: _141  and  _144
REMARK   59  A    between atoms: _144  and  _145
REMARK   60  A    between atoms: _147  and  _149
REMARK   61  A    between atoms: _149  and  _150
REMARK   62  A    between atoms: _149  and  _152
REMARK   63  A    between atoms: _152  and  _153
REMARK   64  A    between atoms: _159  and  _161
REMARK   65  A    between atoms: _161  and  _162
REMARK   66  A    between atoms: _161  and  _164
REMARK   67  A    between atoms: _164  and  _165
REMARK   68  A    between atoms: _165  and  _166
REMARK   69  A    between atoms: _166  and  _167
REMARK   70  A    between atoms: _176  and  _178
REMARK   71  A    between atoms: _178  and  _179
REMARK   72  A    between atoms: _178  and  _181
REMARK   73  A    between atoms: _181  and  _182
REMARK   74  A    between atoms: _185  and  _187
REMARK   75  A    between atoms: _187  and  _188
REMARK   76  A    between atoms: _187  and  _190
REMARK   77  A    between atoms: _190  and  _191
REMARK   78  A    between atoms: _196  and  _198
REMARK   79  A    between atoms: _198  and  _199
REMARK   80  A    between atoms: _198  and  _201
REMARK   81  A    between atoms: _201  and  _202
REMARK   82  A    between atoms: _205  and  _207
REMARK   83  A    between atoms: _207  and  _208
REMARK   84  A    between atoms: _210  and  _212
REMARK   85  A    between atoms: _212  and  _213
REMARK   86  A    between atoms: _212  and  _215
REMARK   87  A    between atoms: _215  and  _216
REMARK   88  A    between atoms: _219  and  _221
REMARK   89  A    between atoms: _221  and  _222
REMARK   90  A    between atoms: _221  and  _224
REMARK   91  A    between atoms: _224  and  _225
REMARK   92  A    between atoms: _225  and  _226
REMARK   93  A    between atoms: _226  and  _227
REMARK   94  A    between atoms: _237  and  _238
REMARK   95  A    between atoms: _243  and  _245
REMARK   96  A    between atoms: _245  and  _246
REMARK   97  A    between atoms: _245  and  _248
REMARK   98  A    between atoms: _248  and  _249
REMARK   99  A    between atoms: _252  and  _254
REMARK  100  A    between atoms: _254  and  _255
REMARK  101  A    between atoms: _254  and  _257
REMARK  102  A    between atoms: _257  and  _258
REMARK  103  A    between atoms: _258  and  _259
REMARK  104  A    between atoms: _259  and  _260
REMARK  105  A    between atoms: _260  and  _261
REMARK  106  A    between atoms: _265  and  _267
REMARK  107  A    between atoms: _267  and  _268
REMARK  108  A    between atoms: _267  and  _270
REMARK  109  A    between atoms: _270  and  _271
REMARK  110  A    between atoms: _271  and  _272
REMARK  111  A    between atoms: _277  and  _279
REMARK  112  A    between atoms: _279  and  _280
REMARK  113  A    between atoms: _279  and  _282
REMARK  114  A    between atoms: _282  and  _283
REMARK  115  A    between atoms: _288  and  _289
REMARK  116  A    between atoms: _291  and  _293
REMARK  117  A    between atoms: _293  and  _294
REMARK  118  A    between atoms: _293  and  _296
REMARK  119  A    between atoms: _296  and  _297
REMARK  120  A    between atoms: _300  and  _302
REMARK  121  A    between atoms: _302  and  _303
REMARK  122  A    between atoms: _302  and  _305
REMARK  123  A    between atoms: _305  and  _306
REMARK  124  A    between atoms: _309  and  _311
REMARK  125  A    between atoms: _311  and  _312
REMARK  126  A    between atoms: _311  and  _314
REMARK  127  A    between atoms: _317  and  _319
REMARK  128  A    between atoms: _319  and  _320
REMARK  129  A    between atoms: _319  and  _322
REMARK  130  A    between atoms: _322  and  _323
REMARK  131  A    between atoms: _323  and  _324
REMARK  132  A    between atoms: _327  and  _329
REMARK  133  A    between atoms: _329  and  _330
REMARK  134  A    between atoms: _329  and  _332
REMARK  135  A    between atoms: _332  and  _333
REMARK  136  A    between atoms: _333  and  _334
REMARK  137  A    between atoms: _339  and  _341
REMARK  138  A    between atoms: _341  and  _342
REMARK  139  A    between atoms: _341  and  _344
REMARK  140  A    between atoms: _344  and  _345
REMARK  141  A    between atoms: _348  and  _350
REMARK  142  A    between atoms: _350  and  _351
REMARK  143  A    between atoms: _353  and  _355
REMARK  144  A    between atoms: _355  and  _356
REMARK  145  A    between atoms: _355  and  _358
REMARK  146  A    between atoms: _358  and  _359
REMARK  147  A    between atoms: _362  and  _364
REMARK  148  A    between atoms: _364  and  _365
REMARK  149  A    between atoms: _368  and  _370
REMARK  150  A    between atoms: _370  and  _371
REMARK  151  A    between atoms: _370  and  _373
REMARK  152  A    between atoms: _373  and  _374
REMARK  153  A    between atoms: _377  and  _379
REMARK  154  A    between atoms: _379  and  _380
REMARK  155  A    between atoms: _379  and  _382
REMARK  156  A    between atoms: _382  and  _383
REMARK  157  A    between atoms: _385  and  _387
REMARK  158  A    between atoms: _387  and  _388
REMARK  159  A    between atoms: _391  and  _393
REMARK  160  A    between atoms: _393  and  _394
REMARK  161  A    between atoms: _393  and  _396
REMARK  162  A    between atoms: _399  and  _401
REMARK  163  A    between atoms: _401  and  _402
REMARK  164  A    between atoms: _401  and  _404
REMARK  165  A    between atoms: _404  and  _405
REMARK  166  A    between atoms: _407  and  _409
REMARK  167  A    between atoms: _409  and  _410
REMARK  168  A    between atoms: _409  and  _412
REMARK  169  A    between atoms: _412  and  _413
REMARK  170  A    between atoms: _418  and  _420
REMARK  171  A    between atoms: _420  and  _421
REMARK  172  A    between atoms: _420  and  _423
REMARK  173  A    between atoms: _423  and  _424
REMARK  174  A    between atoms: _427  and  _429
REMARK  175  A    between atoms: _429  and  _430
REMARK  176  A    between atoms: _429  and  _432
REMARK  177  A    between atoms: _432  and  _433
REMARK  178  A    between atoms: _436  and  _438
REMARK  179  A    between atoms: _438  and  _439
REMARK  180  A    between atoms: _441  and  _443
REMARK  181  A    between atoms: _443  and  _444
REMARK  182  A    between atoms: _447  and  _449
REMARK  183  A    between atoms: _449  and  _450
REMARK  184  A    between atoms: _449  and  _452
REMARK  185  A    between atoms: _455  and  _457
REMARK  186  A    between atoms: _457  and  _458
REMARK  187  A    between atoms: _457  and  _460
REMARK  188  A    between atoms: _460  and  _461
REMARK  189  A    between atoms: _464  and  _466
REMARK  190  A    between atoms: _466  and  _467
REMARK  191  A    between atoms: _466  and  _469
REMARK  192  A    between atoms: _469  and  _470
REMARK  193  A    between atoms: _470  and  _471
REMARK  194  A    between atoms: _474  and  _476
REMARK  195  A    between atoms: _476  and  _477
REMARK  196  A    between atoms: _476  and  _479
REMARK  197  A    between atoms: _479  and  _480
REMARK  198  A    between atoms: _480  and  _481
REMARK  199  A    between atoms: _486  and  _488
REMARK  200  A    between atoms: _488  and  _489
REMARK  201  A    between atoms: _488  and  _491
REMARK  202  A    between atoms: _491  and  _492
REMARK  203  A    between atoms: _492  and  _493
REMARK  204  A    between atoms: _498  and  _500
REMARK  205  A    between atoms: _500  and  _501
REMARK  206  A    between atoms: _500  and  _503
REMARK  207  A    between atoms: _503  and  _504
REMARK  208  A    between atoms: _504  and  _505
REMARK  209  A    between atoms: _508  and  _510
REMARK  210  A    between atoms: _510  and  _511
REMARK  211  A    between atoms: _510  and  _513
REMARK  212  A    between atoms: _513  and  _514
REMARK  213  A    between atoms: _519  and  _521
REMARK  214  A    between atoms: _521  and  _522
REMARK  215  A    between atoms: _521  and  _524
REMARK  216  A    between atoms: _524  and  _525
REMARK  217  A    between atoms: _528  and  _530
REMARK  218  A    between atoms: _530  and  _531
REMARK  219  A    between atoms: _530  and  _533
REMARK  220  A    between atoms: _533  and  _534
REMARK  221  A    between atoms: _537  and  _539
REMARK  222  A    between atoms: _539  and  _540
REMARK  223  A    between atoms: _543  and  _545
REMARK  224  A    between atoms: _545  and  _546
REMARK  225  A    between atoms: _545  and  _548
REMARK  226  A    between atoms: _548  and  _549
REMARK  227  A    between atoms: _552  and  _554
REMARK  228  A    between atoms: _554  and  _555
REMARK  229  A    between atoms: _554  and  _557
REMARK  230  A    between atoms: _557  and  _558
REMARK  231  A    between atoms: _558  and  _559
REMARK  232  A    between atoms: _564  and  _566
REMARK  233  A    between atoms: _566  and  _567
REMARK  234  A    between atoms: _566  and  _569
REMARK  235  A    between atoms: _569  and  _570
REMARK  236  A    between atoms: _573  and  _575
REMARK  237  A    between atoms: _575  and  _576
REMARK  238  A    between atoms: _575  and  _578
REMARK  239  A    between atoms: _578  and  _579
REMARK  240  A    between atoms: _579  and  _580
REMARK  241  A    between atoms: _582  and  _584
REMARK  242  A    between atoms: _584  and  _585
REMARK  243  A    between atoms: _584  and  _587
REMARK  244  A    between atoms: _587  and  _588
REMARK  245  A    between atoms: _591  and  _593
REMARK  246  A    between atoms: _593  and  _594
REMARK  247  A    between atoms: _593  and  _596
REMARK  248  A    between atoms: _596  and  _597
REMARK  249  A    between atoms: _600  and  _602
REMARK  250  A    between atoms: _602  and  _603
REMARK  251  A    between atoms: _602  and  _605
REMARK  252  A    between atoms: _605  and  _606
REMARK  253  A    between atoms: _609  and  _611
REMARK  254  A    between atoms: _611  and  _612
REMARK  255  A    between atoms: _614  and  _616
REMARK  256  A    between atoms: _616  and  _617
REMARK                            x       y       z     vdW  Elec       q    Type
REMARK                         _______ _______ _______ _____ _____    ______ ____
ROOT
ATOM      1  O   HOH     1      22.571  31.276  27.568  0.00  0.00    +0.000 OA
ENDROOT
TORSDOF 0
REMARK  Name = ../refined-set-2016/1ork/1ork_pocket.pdb
REMARK  256 active torsions:
REMARK  status: ('A' for Active; 'I' for Inactive)
REMARK    1  A    between atoms: _1  and  _3
REMARK    2  A    between atoms: _3  and  _4
REMARK    3  A    between atoms: _7  and  _9
REMARK    4  A    between atoms: _9  and  _10
REMARK    5  A    between atoms: _9  and  _12
REMARK    6  A    between atoms: _15  and  _17
REMARK    7  A    between atoms: _17  and  _18
REMARK    8  A    between atoms: _17  and  _20
REMARK    9  A    between atoms: _20  and  _21
REMARK   10  A    between atoms: _24  and  _26
REMARK   11  A    between atoms: _26  and  _27
REMARK   12  A    between atoms: _30  and  _32
REMARK   13  A    between atoms: _32  and  _33
REMARK   14  A    between atoms: _32  and  _35
REMARK   15  A    between atoms: _35  and  _36
REMARK   16  A    between atoms: _41  and  _43
REMARK   17  A    between atoms: _43  and  _44
REMARK   18  A    between atoms: _43  and  _46
REMARK   19  A    between atoms: _46  and  _47
REMARK   20  A    between atoms: _50  and  _52
REMARK   21  A    between atoms: _52  and  _53
REMARK   22  A    between atoms: _52  and  _55
REMARK   23  A    between atoms: _55  and  _56
REMARK   24  A    between atoms: _61  and  _62
REMARK   25  A    between atoms: _64  and  _66
REMARK   26  A    between atoms: _66  and  _67
REMARK   27  A    between atoms: _66  and  _69
REMARK   28  A    between atoms: _69  and  _70
REMARK   29  A    between atoms: _72  and  _74
REMARK   30  A    between atoms: _74  and  _75
REMARK   31  A    between atoms: _74  and  _77
REMARK   32  A    between atoms: _77  and  _78
REMARK   33  A    between atoms: _81  and  _83
REMARK   34  A    between atoms: _83  and  _84
REMARK   35  A    between atoms: _83  and  _86
REMARK   36  A    between atoms: _86  and  _87
REMARK   37  A    between atoms: _93  and  _95
REMARK   38  A    between atoms: _95  and  _96
REMARK   39  A    between atoms: _95  and  _98
REMARK   40  A    between atoms: _98  and  _99
REMARK   41  A    between atoms: _102  and  _104
REMARK   42  A    between atoms: _104  and  _105
REMARK   43  A    between atoms: _104  and  _107
REMARK   44  A    between atoms: _107  and  _108
REMARK   45  A    between atoms: _113  and  _115
REMARK   46  A    between atoms: _115  and  _116
REMARK   47  A    between atoms: _115  and  _118
REMARK   48  A    between atoms: _118  and  _119
REMARK   49  A    between atoms: _124  and  _126
REMARK   50  A    between atoms: _126  and  _127
REMARK   51  A    between atoms: _130  and  _132
REMARK   52  A    between atoms: _132  and  _133
REMARK   53  A    between atoms: _132  and  _135
REMARK   54  A    between atoms: _135  and  _136
REMARK   55  A    between atoms: _136  and  _137
REMARK   56  A    between atoms: _139  and  _141
REMARK   57  A    between atoms: _141  and  _142
REMARK   58  A    between atoms: _141  and  _144
REMARK   59  A    between atoms: _144  and  _145
REMARK   60  A    between atoms: _147  and  _149
REMARK   61  A    between atoms: _149  and  _150
REMARK   62  A    between atoms: _149  and  _152
REMARK   63  A    between atoms: _152  and  _153
REMARK   64  A    between atoms: _159  and  _161
REMARK   65  A    between atoms: _161  and  _162
REMARK   66  A    between atoms: _161  and  _164
REMARK   67  A    between atoms: _164  and  _165
REMARK   68  A    between atoms: _165  and  _166
REMARK   69  A    between atoms: _166  and  _167
REMARK   70  A    between atoms: _176  and  _178
REMARK   71  A    between atoms: _178  and  _179
REMARK   72  A    between atoms: _178  and  _181
REMARK   73  A    between atoms: _181  and  _182
REMARK   74  A    between atoms: _185  and  _187
REMARK   75  A    between atoms: _187  and  _188
REMARK   76  A    between atoms: _187  and  _190
REMARK   77  A    between atoms: _190  and  _191
REMARK   78  A    between atoms: _196  and  _198
REMARK   79  A    between atoms: _198  and  _199
REMARK   80  A    between atoms: _198  and  _201
REMARK   81  A    between atoms: _201  and  _202
REMARK   82  A    between atoms: _205  and  _207
REMARK   83  A    between atoms: _207  and  _208
REMARK   84  A    between atoms: _210  and  _212
REMARK   85  A    between atoms: _212  and  _213
REMARK   86  A    between atoms: _212  and  _215
REMARK   87  A    between atoms: _215  and  _216
REMARK   88  A    between atoms: _219  and  _221
REMARK   89  A    between atoms: _221  and  _222
REMARK   90  A    between atoms: _221  and  _224
REMARK   91  A    between atoms: _224  and  _225
REMARK   92  A    between atoms: _225  and  _226
REMARK   93  A    between atoms: _226  and  _227
REMARK   94  A    between atoms: _237  and  _238
REMARK   95  A    between atoms: _243  and  _245
REMARK   96  A    between atoms: _245  and  _246
REMARK   97  A    between atoms: _245  and  _248
REMARK   98  A    between atoms: _248  and  _249
REMARK   99  A    between atoms: _252  and  _254
REMARK  100  A    between atoms: _254  and  _255
REMARK  101  A    between atoms: _254  and  _257
REMARK  102  A    between atoms: _257  and  _258
REMARK  103  A    between atoms: _258  and  _259
REMARK  104  A    between atoms: _259  and  _260
REMARK  105  A    between atoms: _260  and  _261
REMARK  106  A    between atoms: _265  and  _267
REMARK  107  A    between atoms: _267  and  _268
REMARK  108  A    between atoms: _267  and  _270
REMARK  109  A    between atoms: _270  and  _271
REMARK  110  A    between atoms: _271  and  _272
REMARK  111  A    between atoms: _277  and  _279
REMARK  112  A    between atoms: _279  and  _280
REMARK  113  A    between atoms: _279  and  _282
REMARK  114  A    between atoms: _282  and  _283
REMARK  115  A    between atoms: _288  and  _289
REMARK  116  A    between atoms: _291  and  _293
REMARK  117  A    between atoms: _293  and  _294
REMARK  118  A    between atoms: _293  and  _296
REMARK  119  A    between atoms: _296  and  _297
REMARK  120  A    between atoms: _300  and  _302
REMARK  121  A    between atoms: _302  and  _303
REMARK  122  A    between atoms: _302  and  _305
REMARK  123  A    between atoms: _305  and  _306
REMARK  124  A    between atoms: _309  and  _311
REMARK  125  A    between atoms: _311  and  _312
REMARK  126  A    between atoms: _311  and  _314
REMARK  127  A    between atoms: _317  and  _319
REMARK  128  A    between atoms: _319  and  _320
REMARK  129  A    between atoms: _319  and  _322
REMARK  130  A    between atoms: _322  and  _323
REMARK  131  A    between atoms: _323  and  _324
REMARK  132  A    between atoms: _327  and  _329
REMARK  133  A    between atoms: _329  and  _330
REMARK  134  A    between atoms: _329  and  _332
REMARK  135  A    between atoms: _332  and  _333
REMARK  136  A    between atoms: _333  and  _334
REMARK  137  A    between atoms: _339  and  _341
REMARK  138  A    between atoms: _341  and  _342
REMARK  139  A    between atoms: _341  and  _344
REMARK  140  A    between atoms: _344  and  _345
REMARK  141  A    between atoms: _348  and  _350
REMARK  142  A    between atoms: _350  and  _351
REMARK  143  A    between atoms: _353  and  _355
REMARK  144  A    between atoms: _355  and  _356
REMARK  145  A    between atoms: _355  and  _358
REMARK  146  A    between atoms: _358  and  _359
REMARK  147  A    between atoms: _362  and  _364
REMARK  148  A    between atoms: _364  and  _365
REMARK  149  A    between atoms: _368  and  _370
REMARK  150  A    between atoms: _370  and  _371
REMARK  151  A    between atoms: _370  and  _373
REMARK  152  A    between atoms: _373  and  _374
REMARK  153  A    between atoms: _377  and  _379
REMARK  154  A    between atoms: _379  and  _380
REMARK  155  A    between atoms: _379  and  _382
REMARK  156  A    between atoms: _382  and  _383
REMARK  157  A    between atoms: _385  and  _387
REMARK  158  A    between atoms: _387  and  _388
REMARK  159  A    between atoms: _391  and  _393
REMARK  160  A    between atoms: _393  and  _394
REMARK  161  A    between atoms: _393  and  _396
REMARK  162  A    between atoms: _399  and  _401
REMARK  163  A    between atoms: _401  and  _402
REMARK  164  A    between atoms: _401  and  _404
REMARK  165  A    between atoms: _404  and  _405
REMARK  166  A    between atoms: _407  and  _409
REMARK  167  A    between atoms: _409  and  _410
REMARK  168  A    between atoms: _409  and  _412
REMARK  169  A    between atoms: _412  and  _413
REMARK  170  A    between atoms: _418  and  _420
REMARK  171  A    between atoms: _420  and  _421
REMARK  172  A    between atoms: _420  and  _423
REMARK  173  A    between atoms: _423  and  _424
REMARK  174  A    between atoms: _427  and  _429
REMARK  175  A    between atoms: _429  and  _430
REMARK  176  A    between atoms: _429  and  _432
REMARK  177  A    between atoms: _432  and  _433
REMARK  178  A    between atoms: _436  and  _438
REMARK  179  A    between atoms: _438  and  _439
REMARK  180  A    between atoms: _441  and  _443
REMARK  181  A    between atoms: _443  and  _444
REMARK  182  A    between atoms: _447  and  _449
REMARK  183  A    between atoms: _449  and  _450
REMARK  184  A    between atoms: _449  and  _452
REMARK  185  A    between atoms: _455  and  _457
REMARK  186  A    between atoms: _457  and  _458
REMARK  187  A    between atoms: _457  and  _460
REMARK  188  A    between atoms: _460  and  _461
REMARK  189  A    between atoms: _464  and  _466
REMARK  190  A    between atoms: _466  and  _467
REMARK  191  A    between atoms: _466  and  _469
REMARK  192  A    between atoms: _469  and  _470
REMARK  193  A    between atoms: _470  and  _471
REMARK  194  A    between atoms: _474  and  _476
REMARK  195  A    between atoms: _476  and  _477
REMARK  196  A    between atoms: _476  and  _479
REMARK  197  A    between atoms: _479  and  _480
REMARK  198  A    between atoms: _480  and  _481
REMARK  199  A    between atoms: _486  and  _488
REMARK  200  A    between atoms: _488  and  _489
REMARK  201  A    between atoms: _488  and  _491
REMARK  202  A    between atoms: _491  and  _492
REMARK  203  A    between atoms: _492  and  _493
REMARK  204  A    between atoms: _498  and  _500
REMARK  205  A    between atoms: _500  and  _501
REMARK  206  A    between atoms: _500  and  _503
REMARK  207  A    between atoms: _503  and  _504
REMARK  208  A    between atoms: _504  and  _505
REMARK  209  A    between atoms: _508  and  _510
REMARK  210  A    between atoms: _510  and  _511
REMARK  211  A    between atoms: _510  and  _513
REMARK  212  A    between atoms: _513  and  _514
REMARK  213  A    between atoms: _519  and  _521
REMARK  214  A    between atoms: _521  and  _522
REMARK  215  A    between atoms: _521  and  _524
REMARK  216  A    between atoms: _524  and  _525
REMARK  217  A    between atoms: _528  and  _530
REMARK  218  A    between atoms: _530  and  _531
REMARK  219  A    between atoms: _530  and  _533
REMARK  220  A    between atoms: _533  and  _534
REMARK  221  A    between atoms: _537  and  _539
REMARK  222  A    between atoms: _539  and  _540
REMARK  223  A    between atoms: _543  and  _545
REMARK  224  A    between atoms: _545  and  _546
REMARK  225  A    between atoms: _545  and  _548
REMARK  226  A    between atoms: _548  and  _549
REMARK  227  A    between atoms: _552  and  _554
REMARK  228  A    between atoms: _554  and  _555
REMARK  229  A    between atoms: _554  and  _557
REMARK  230  A    between atoms: _557  and  _558
REMARK  231  A    between atoms: _558  and  _559
REMARK  232  A    between atoms: _564  and  _566
REMARK  233  A    between atoms: _566  and  _567
REMARK  234  A    between atoms: _566  and  _569
REMARK  235  A    between atoms: _569  and  _570
REMARK  236  A    between atoms: _573  and  _575
REMARK  237  A    between atoms: _575  and  _576
REMARK  238  A    between atoms: _575  and  _578
REMARK  239  A    between atoms: _578  and  _579
REMARK  240  A    between atoms: _579  and  _580
REMARK  241  A    between atoms: _582  and  _584
REMARK  242  A    between atoms: _584  and  _585
REMARK  243  A    between atoms: _584  and  _587
REMARK  244  A    between atoms: _587  and  _588
REMARK  245  A    between atoms: _591  and  _593
REMARK  246  A    between atoms: _593  and  _594
REMARK  247  A    between atoms: _593  and  _596
REMARK  248  A    between atoms: _596  and  _597
REMARK  249  A    between atoms: _600  and  _602
REMARK  250  A    between atoms: _602  and  _603
REMARK  251  A    between atoms: _602  and  _605
REMARK  252  A    between atoms: _605  and  _606
REMARK  253  A    between atoms: _609  and  _611
REMARK  254  A    between atoms: _611  and  _612
REMARK  255  A    between atoms: _614  and  _616
REMARK  256  A    between atoms: _616  and  _617
REMARK                            x       y       z     vdW  Elec       q    Type
REMARK                         _______ _______ _______ _____ _____    ______ ____
ROOT
ATOM      1  O   HOH     1      19.859  33.733  28.142  0.00  0.00    +0.000 OA
ENDROOT
TORSDOF 0
REMARK  Name = ../refined-set-2016/1ork/1ork_pocket.pdb
REMARK  256 active torsions:
REMARK  status: ('A' for Active; 'I' for Inactive)
REMARK    1  A    between atoms: _1  and  _3
REMARK    2  A    between atoms: _3  and  _4
REMARK    3  A    between atoms: _7  and  _9
REMARK    4  A    between atoms: _9  and  _10
REMARK    5  A    between atoms: _9  and  _12
REMARK    6  A    between atoms: _15  and  _17
REMARK    7  A    between atoms: _17  and  _18
REMARK    8  A    between atoms: _17  and  _20
REMARK    9  A    between atoms: _20  and  _21
REMARK   10  A    between atoms: _24  and  _26
REMARK   11  A    between atoms: _26  and  _27
REMARK   12  A    between atoms: _30  and  _32
REMARK   13  A    between atoms: _32  and  _33
REMARK   14  A    between atoms: _32  and  _35
REMARK   15  A    between atoms: _35  and  _36
REMARK   16  A    between atoms: _41  and  _43
REMARK   17  A    between atoms: _43  and  _44
REMARK   18  A    between atoms: _43  and  _46
REMARK   19  A    between atoms: _46  and  _47
REMARK   20  A    between atoms: _50  and  _52
REMARK   21  A    between atoms: _52  and  _53
REMARK   22  A    between atoms: _52  and  _55
REMARK   23  A    between atoms: _55  and  _56
REMARK   24  A    between atoms: _61  and  _62
REMARK   25  A    between atoms: _64  and  _66
REMARK   26  A    between atoms: _66  and  _67
REMARK   27  A    between atoms: _66  and  _69
REMARK   28  A    between atoms: _69  and  _70
REMARK   29  A    between atoms: _72  and  _74
REMARK   30  A    between atoms: _74  and  _75
REMARK   31  A    between atoms: _74  and  _77
REMARK   32  A    between atoms: _77  and  _78
REMARK   33  A    between atoms: _81  and  _83
REMARK   34  A    between atoms: _83  and  _84
REMARK   35  A    between atoms: _83  and  _86
REMARK   36  A    between atoms: _86  and  _87
REMARK   37  A    between atoms: _93  and  _95
REMARK   38  A    between atoms: _95  and  _96
REMARK   39  A    between atoms: _95  and  _98
REMARK   40  A    between atoms: _98  and  _99
REMARK   41  A    between atoms: _102  and  _104
REMARK   42  A    between atoms: _104  and  _105
REMARK   43  A    between atoms: _104  and  _107
REMARK   44  A    between atoms: _107  and  _108
REMARK   45  A    between atoms: _113  and  _115
REMARK   46  A    between atoms: _115  and  _116
REMARK   47  A    between atoms: _115  and  _118
REMARK   48  A    between atoms: _118  and  _119
REMARK   49  A    between atoms: _124  and  _126
REMARK   50  A    between atoms: _126  and  _127
REMARK   51  A    between atoms: _130  and  _132
REMARK   52  A    between atoms: _132  and  _133
REMARK   53  A    between atoms: _132  and  _135
REMARK   54  A    between atoms: _135  and  _136
REMARK   55  A    between atoms: _136  and  _137
REMARK   56  A    between atoms: _139  and  _141
REMARK   57  A    between atoms: _141  and  _142
REMARK   58  A    between atoms: _141  and  _144
REMARK   59  A    between atoms: _144  and  _145
REMARK   60  A    between atoms: _147  and  _149
REMARK   61  A    between atoms: _149  and  _150
REMARK   62  A    between atoms: _149  and  _152
REMARK   63  A    between atoms: _152  and  _153
REMARK   64  A    between atoms: _159  and  _161
REMARK   65  A    between atoms: _161  and  _162
REMARK   66  A    between atoms: _161  and  _164
REMARK   67  A    between atoms: _164  and  _165
REMARK   68  A    between atoms: _165  and  _166
REMARK   69  A    between atoms: _166  and  _167
REMARK   70  A    between atoms: _176  and  _178
REMARK   71  A    between atoms: _178  and  _179
REMARK   72  A    between atoms: _178  and  _181
REMARK   73  A    between atoms: _181  and  _182
REMARK   74  A    between atoms: _185  and  _187
REMARK   75  A    between atoms: _187  and  _188
REMARK   76  A    between atoms: _187  and  _190
REMARK   77  A    between atoms: _190  and  _191
REMARK   78  A    between atoms: _196  and  _198
REMARK   79  A    between atoms: _198  and  _199
REMARK   80  A    between atoms: _198  and  _201
REMARK   81  A    between atoms: _201  and  _202
REMARK   82  A    between atoms: _205  and  _207
REMARK   83  A    between atoms: _207  and  _208
REMARK   84  A    between atoms: _210  and  _212
REMARK   85  A    between atoms: _212  and  _213
REMARK   86  A    between atoms: _212  and  _215
REMARK   87  A    between atoms: _215  and  _216
REMARK   88  A    between atoms: _219  and  _221
REMARK   89  A    between atoms: _221  and  _222
REMARK   90  A    between atoms: _221  and  _224
REMARK   91  A    between atoms: _224  and  _225
REMARK   92  A    between atoms: _225  and  _226
REMARK   93  A    between atoms: _226  and  _227
REMARK   94  A    between atoms: _237  and  _238
REMARK   95  A    between atoms: _243  and  _245
REMARK   96  A    between atoms: _245  and  _246
REMARK   97  A    between atoms: _245  and  _248
REMARK   98  A    between atoms: _248  and  _249
REMARK   99  A    between atoms: _252  and  _254
REMARK  100  A    between atoms: _254  and  _255
REMARK  101  A    between atoms: _254  and  _257
REMARK  102  A    between atoms: _257  and  _258
REMARK  103  A    between atoms: _258  and  _259
REMARK  104  A    between atoms: _259  and  _260
REMARK  105  A    between atoms: _260  and  _261
REMARK  106  A    between atoms: _265  and  _267
REMARK  107  A    between atoms: _267  and  _268
REMARK  108  A    between atoms: _267  and  _270
REMARK  109  A    between atoms: _270  and  _271
REMARK  110  A    between atoms: _271  and  _272
REMARK  111  A    between atoms: _277  and  _279
REMARK  112  A    between atoms: _279  and  _280
REMARK  113  A    between atoms: _279  and  _282
REMARK  114  A    between atoms: _282  and  _283
REMARK  115  A    between atoms: _288  and  _289
REMARK  116  A    between atoms: _291  and  _293
REMARK  117  A    between atoms: _293  and  _294
REMARK  118  A    between atoms: _293  and  _296
REMARK  119  A    between atoms: _296  and  _297
REMARK  120  A    between atoms: _300  and  _302
REMARK  121  A    between atoms: _302  and  _303
REMARK  122  A    between atoms: _302  and  _305
REMARK  123  A    between atoms: _305  and  _306
REMARK  124  A    between atoms: _309  and  _311
REMARK  125  A    between atoms: _311  and  _312
REMARK  126  A    between atoms: _311  and  _314
REMARK  127  A    between atoms: _317  and  _319
REMARK  128  A    between atoms: _319  and  _320
REMARK  129  A    between atoms: _319  and  _322
REMARK  130  A    between atoms: _322  and  _323
REMARK  131  A    between atoms: _323  and  _324
REMARK  132  A    between atoms: _327  and  _329
REMARK  133  A    between atoms: _329  and  _330
REMARK  134  A    between atoms: _329  and  _332
REMARK  135  A    between atoms: _332  and  _333
REMARK  136  A    between atoms: _333  and  _334
REMARK  137  A    between atoms: _339  and  _341
REMARK  138  A    between atoms: _341  and  _342
REMARK  139  A    between atoms: _341  and  _344
REMARK  140  A    between atoms: _344  and  _345
REMARK  141  A    between atoms: _348  and  _350
REMARK  142  A    between atoms: _350  and  _351
REMARK  143  A    between atoms: _353  and  _355
REMARK  144  A    between atoms: _355  and  _356
REMARK  145  A    between atoms: _355  and  _358
REMARK  146  A    between atoms: _358  and  _359
REMARK  147  A    between atoms: _362  and  _364
REMARK  148  A    between atoms: _364  and  _365
REMARK  149  A    between atoms: _368  and  _370
REMARK  150  A    between atoms: _370  and  _371
REMARK  151  A    between atoms: _370  and  _373
REMARK  152  A    between atoms: _373  and  _374
REMARK  153  A    between atoms: _377  and  _379
REMARK  154  A    between atoms: _379  and  _380
REMARK  155  A    between atoms: _379  and  _382
REMARK  156  A    between atoms: _382  and  _383
REMARK  157  A    between atoms: _385  and  _387
REMARK  158  A    between atoms: _387  and  _388
REMARK  159  A    between atoms: _391  and  _393
REMARK  160  A    between atoms: _393  and  _394
REMARK  161  A    between atoms: _393  and  _396
REMARK  162  A    between atoms: _399  and  _401
REMARK  163  A    between atoms: _401  and  _402
REMARK  164  A    between atoms: _401  and  _404
REMARK  165  A    between atoms: _404  and  _405
REMARK  166  A    between atoms: _407  and  _409
REMARK  167  A    between atoms: _409  and  _410
REMARK  168  A    between atoms: _409  and  _412
REMARK  169  A    between atoms: _412  and  _413
REMARK  170  A    between atoms: _418  and  _420
REMARK  171  A    between atoms: _420  and  _421
REMARK  172  A    between atoms: _420  and  _423
REMARK  173  A    between atoms: _423  and  _424
REMARK  174  A    between atoms: _427  and  _429
REMARK  175  A    between atoms: _429  and  _430
REMARK  176  A    between atoms: _429  and  _432
REMARK  177  A    between atoms: _432  and  _433
REMARK  178  A    between atoms: _436  and  _438
REMARK  179  A    between atoms: _438  and  _439
REMARK  180  A    between atoms: _441  and  _443
REMARK  181  A    between atoms: _443  and  _444
REMARK  182  A    between atoms: _447  and  _449
REMARK  183  A    between atoms: _449  and  _450
REMARK  184  A    between atoms: _449  and  _452
REMARK  185  A    between atoms: _455  and  _457
REMARK  186  A    between atoms: _457  and  _458
REMARK  187  A    between atoms: _457  and  _460
REMARK  188  A    between atoms: _460  and  _461
REMARK  189  A    between atoms: _464  and  _466
REMARK  190  A    between atoms: _466  and  _467
REMARK  191  A    between atoms: _466  and  _469
REMARK  192  A    between atoms: _469  and  _470
REMARK  193  A    between atoms: _470  and  _471
REMARK  194  A    between atoms: _474  and  _476
REMARK  195  A    between atoms: _476  and  _477
REMARK  196  A    between atoms: _476  and  _479
REMARK  197  A    between atoms: _479  and  _480
REMARK  198  A    between atoms: _480  and  _481
REMARK  199  A    between atoms: _486  and  _488
REMARK  200  A    between atoms: _488  and  _489
REMARK  201  A    between atoms: _488  and  _491
REMARK  202  A    between atoms: _491  and  _492
REMARK  203  A    between atoms: _492  and  _493
REMARK  204  A    between atoms: _498  and  _500
REMARK  205  A    between atoms: _500  and  _501
REMARK  206  A    between atoms: _500  and  _503
REMARK  207  A    between atoms: _503  and  _504
REMARK  208  A    between atoms: _504  and  _505
REMARK  209  A    between atoms: _508  and  _510
REMARK  210  A    between atoms: _510  and  _511
REMARK  211  A    between atoms: _510  and  _513
REMARK  212  A    between atoms: _513  and  _514
REMARK  213  A    between atoms: _519  and  _521
REMARK  214  A    between atoms: _521  and  _522
REMARK  215  A    between atoms: _521  and  _524
REMARK  216  A    between atoms: _524  and  _525
REMARK  217  A    between atoms: _528  and  _530
REMARK  218  A    between atoms: _530  and  _531
REMARK  219  A    between atoms: _530  and  _533
REMARK  220  A    between atoms: _533  and  _534
REMARK  221  A    between atoms: _537  and  _539
REMARK  222  A    between atoms: _539  and  _540
REMARK  223  A    between atoms: _543  and  _545
REMARK  224  A    between atoms: _545  and  _546
REMARK  225  A    between atoms: _545  and  _548
REMARK  226  A    between atoms: _548  and  _549
REMARK  227  A    between atoms: _552  and  _554
REMARK  228  A    between atoms: _554  and  _555
REMARK  229  A    between atoms: _554  and  _557
REMARK  230  A    between atoms: _557  and  _558
REMARK  231  A    between atoms: _558  and  _559
REMARK  232  A    between atoms: _564  and  _566
REMARK  233  A    between atoms: _566  and  _567
REMARK  234  A    between atoms: _566  and  _569
REMARK  235  A    between atoms: _569  and  _570
REMARK  236  A    between atoms: _573  and  _575
REMARK  237  A    between atoms: _575  and  _576
REMARK  238  A    between atoms: _575  and  _578
REMARK  239  A    between atoms: _578  and  _579
REMARK  240  A    between atoms: _579  and  _580
REMARK  241  A    between atoms: _582  and  _584
REMARK  242  A    between atoms: _584  and  _585
REMARK  243  A    between atoms: _584  and  _587
REMARK  244  A    between atoms: _587  and  _588
REMARK  245  A    between atoms: _591  and  _593
REMARK  246  A    between atoms: _593  and  _594
REMARK  247  A    between atoms: _593  and  _596
REMARK  248  A    between atoms: _596  and  _597
REMARK  249  A    between atoms: _600  and  _602
REMARK  250  A    between atoms: _602  and  _603
REMARK  251  A    between atoms: _602  and  _605
REMARK  252  A    between atoms: _605  and  _606
REMARK  253  A    between atoms: _609  and  _611
REMARK  254  A    between atoms: _611  and  _612
REMARK  255  A    between atoms: _614  and  _616
REMARK  256  A    between atoms: _616  and  _617
REMARK                            x       y       z     vdW  Elec       q    Type
REMARK                         _______ _______ _______ _____ _____    ______ ____
ROOT
ATOM      1  O   HOH     1      27.145  41.556  33.967  0.00  0.00    +0.000 OA
ENDROOT
TORSDOF 0
REMARK  Name = ../refined-set-2016/1ork/1ork_pocket.pdb
REMARK  256 active torsions:
REMARK  status: ('A' for Active; 'I' for Inactive)
REMARK    1  A    between atoms: _1  and  _3
REMARK    2  A    between atoms: _3  and  _4
REMARK    3  A    between atoms: _7  and  _9
REMARK    4  A    between atoms: _9  and  _10
REMARK    5  A    between atoms: _9  and  _12
REMARK    6  A    between atoms: _15  and  _17
REMARK    7  A    between atoms: _17  and  _18
REMARK    8  A    between atoms: _17  and  _20
REMARK    9  A    between atoms: _20  and  _21
REMARK   10  A    between atoms: _24  and  _26
REMARK   11  A    between atoms: _26  and  _27
REMARK   12  A    between atoms: _30  and  _32
REMARK   13  A    between atoms: _32  and  _33
REMARK   14  A    between atoms: _32  and  _35
REMARK   15  A    between atoms: _35  and  _36
REMARK   16  A    between atoms: _41  and  _43
REMARK   17  A    between atoms: _43  and  _44
REMARK   18  A    between atoms: _43  and  _46
REMARK   19  A    between atoms: _46  and  _47
REMARK   20  A    between atoms: _50  and  _52
REMARK   21  A    between atoms: _52  and  _53
REMARK   22  A    between atoms: _52  and  _55
REMARK   23  A    between atoms: _55  and  _56
REMARK   24  A    between atoms: _61  and  _62
REMARK   25  A    between atoms: _64  and  _66
REMARK   26  A    between atoms: _66  and  _67
REMARK   27  A    between atoms: _66  and  _69
REMARK   28  A    between atoms: _69  and  _70
REMARK   29  A    between atoms: _72  and  _74
REMARK   30  A    between atoms: _74  and  _75
REMARK   31  A    between atoms: _74  and  _77
REMARK   32  A    between atoms: _77  and  _78
REMARK   33  A    between atoms: _81  and  _83
REMARK   34  A    between atoms: _83  and  _84
REMARK   35  A    between atoms: _83  and  _86
REMARK   36  A    between atoms: _86  and  _87
REMARK   37  A    between atoms: _93  and  _95
REMARK   38  A    between atoms: _95  and  _96
REMARK   39  A    between atoms: _95  and  _98
REMARK   40  A    between atoms: _98  and  _99
REMARK   41  A    between atoms: _102  and  _104
REMARK   42  A    between atoms: _104  and  _105
REMARK   43  A    between atoms: _104  and  _107
REMARK   44  A    between atoms: _107  and  _108
REMARK   45  A    between atoms: _113  and  _115
REMARK   46  A    between atoms: _115  and  _116
REMARK   47  A    between atoms: _115  and  _118
REMARK   48  A    between atoms: _118  and  _119
REMARK   49  A    between atoms: _124  and  _126
REMARK   50  A    between atoms: _126  and  _127
REMARK   51  A    between atoms: _130  and  _132
REMARK   52  A    between atoms: _132  and  _133
REMARK   53  A    between atoms: _132  and  _135
REMARK   54  A    between atoms: _135  and  _136
REMARK   55  A    between atoms: _136  and  _137
REMARK   56  A    between atoms: _139  and  _141
REMARK   57  A    between atoms: _141  and  _142
REMARK   58  A    between atoms: _141  and  _144
REMARK   59  A    between atoms: _144  and  _145
REMARK   60  A    between atoms: _147  and  _149
REMARK   61  A    between atoms: _149  and  _150
REMARK   62  A    between atoms: _149  and  _152
REMARK   63  A    between atoms: _152  and  _153
REMARK   64  A    between atoms: _159  and  _161
REMARK   65  A    between atoms: _161  and  _162
REMARK   66  A    between atoms: _161  and  _164
REMARK   67  A    between atoms: _164  and  _165
REMARK   68  A    between atoms: _165  and  _166
REMARK   69  A    between atoms: _166  and  _167
REMARK   70  A    between atoms: _176  and  _178
REMARK   71  A    between atoms: _178  and  _179
REMARK   72  A    between atoms: _178  and  _181
REMARK   73  A    between atoms: _181  and  _182
REMARK   74  A    between atoms: _185  and  _187
REMARK   75  A    between atoms: _187  and  _188
REMARK   76  A    between atoms: _187  and  _190
REMARK   77  A    between atoms: _190  and  _191
REMARK   78  A    between atoms: _196  and  _198
REMARK   79  A    between atoms: _198  and  _199
REMARK   80  A    between atoms: _198  and  _201
REMARK   81  A    between atoms: _201  and  _202
REMARK   82  A    between atoms: _205  and  _207
REMARK   83  A    between atoms: _207  and  _208
REMARK   84  A    between atoms: _210  and  _212
REMARK   85  A    between atoms: _212  and  _213
REMARK   86  A    between atoms: _212  and  _215
REMARK   87  A    between atoms: _215  and  _216
REMARK   88  A    between atoms: _219  and  _221
REMARK   89  A    between atoms: _221  and  _222
REMARK   90  A    between atoms: _221  and  _224
REMARK   91  A    between atoms: _224  and  _225
REMARK   92  A    between atoms: _225  and  _226
REMARK   93  A    between atoms: _226  and  _227
REMARK   94  A    between atoms: _237  and  _238
REMARK   95  A    between atoms: _243  and  _245
REMARK   96  A    between atoms: _245  and  _246
REMARK   97  A    between atoms: _245  and  _248
REMARK   98  A    between atoms: _248  and  _249
REMARK   99  A    between atoms: _252  and  _254
REMARK  100  A    between atoms: _254  and  _255
REMARK  101  A    between atoms: _254  and  _257
REMARK  102  A    between atoms: _257  and  _258
REMARK  103  A    between atoms: _258  and  _259
REMARK  104  A    between atoms: _259  and  _260
REMARK  105  A    between atoms: _260  and  _261
REMARK  106  A    between atoms: _265  and  _267
REMARK  107  A    between atoms: _267  and  _268
REMARK  108  A    between atoms: _267  and  _270
REMARK  109  A    between atoms: _270  and  _271
REMARK  110  A    between atoms: _271  and  _272
REMARK  111  A    between atoms: _277  and  _279
REMARK  112  A    between atoms: _279  and  _280
REMARK  113  A    between atoms: _279  and  _282
REMARK  114  A    between atoms: _282  and  _283
REMARK  115  A    between atoms: _288  and  _289
REMARK  116  A    between atoms: _291  and  _293
REMARK  117  A    between atoms: _293  and  _294
REMARK  118  A    between atoms: _293  and  _296
REMARK  119  A    between atoms: _296  and  _297
REMARK  120  A    between atoms: _300  and  _302
REMARK  121  A    between atoms: _302  and  _303
REMARK  122  A    between atoms: _302  and  _305
REMARK  123  A    between atoms: _305  and  _306
REMARK  124  A    between atoms: _309  and  _311
REMARK  125  A    between atoms: _311  and  _312
REMARK  126  A    between atoms: _311  and  _314
REMARK  127  A    between atoms: _317  and  _319
REMARK  128  A    between atoms: _319  and  _320
REMARK  129  A    between atoms: _319  and  _322
REMARK  130  A    between atoms: _322  and  _323
REMARK  131  A    between atoms: _323  and  _324
REMARK  132  A    between atoms: _327  and  _329
REMARK  133  A    between atoms: _329  and  _330
REMARK  134  A    between atoms: _329  and  _332
REMARK  135  A    between atoms: _332  and  _333
REMARK  136  A    between atoms: _333  and  _334
REMARK  137  A    between atoms: _339  and  _341
REMARK  138  A    between atoms: _341  and  _342
REMARK  139  A    between atoms: _341  and  _344
REMARK  140  A    between atoms: _344  and  _345
REMARK  141  A    between atoms: _348  and  _350
REMARK  142  A    between atoms: _350  and  _351
REMARK  143  A    between atoms: _353  and  _355
REMARK  144  A    between atoms: _355  and  _356
REMARK  145  A    between atoms: _355  and  _358
REMARK  146  A    between atoms: _358  and  _359
REMARK  147  A    between atoms: _362  and  _364
REMARK  148  A    between atoms: _364  and  _365
REMARK  149  A    between atoms: _368  and  _370
REMARK  150  A    between atoms: _370  and  _371
REMARK  151  A    between atoms: _370  and  _373
REMARK  152  A    between atoms: _373  and  _374
REMARK  153  A    between atoms: _377  and  _379
REMARK  154  A    between atoms: _379  and  _380
REMARK  155  A    between atoms: _379  and  _382
REMARK  156  A    between atoms: _382  and  _383
REMARK  157  A    between atoms: _385  and  _387
REMARK  158  A    between atoms: _387  and  _388
REMARK  159  A    between atoms: _391  and  _393
REMARK  160  A    between atoms: _393  and  _394
REMARK  161  A    between atoms: _393  and  _396
REMARK  162  A    between atoms: _399  and  _401
REMARK  163  A    between atoms: _401  and  _402
REMARK  164  A    between atoms: _401  and  _404
REMARK  165  A    between atoms: _404  and  _405
REMARK  166  A    between atoms: _407  and  _409
REMARK  167  A    between atoms: _409  and  _410
REMARK  168  A    between atoms: _409  and  _412
REMARK  169  A    between atoms: _412  and  _413
REMARK  170  A    between atoms: _418  and  _420
REMARK  171  A    between atoms: _420  and  _421
REMARK  172  A    between atoms: _420  and  _423
REMARK  173  A    between atoms: _423  and  _424
REMARK  174  A    between atoms: _427  and  _429
REMARK  175  A    between atoms: _429  and  _430
REMARK  176  A    between atoms: _429  and  _432
REMARK  177  A    between atoms: _432  and  _433
REMARK  178  A    between atoms: _436  and  _438
REMARK  179  A    between atoms: _438  and  _439
REMARK  180  A    between atoms: _441  and  _443
REMARK  181  A    between atoms: _443  and  _444
REMARK  182  A    between atoms: _447  and  _449
REMARK  183  A    between atoms: _449  and  _450
REMARK  184  A    between atoms: _449  and  _452
REMARK  185  A    between atoms: _455  and  _457
REMARK  186  A    between atoms: _457  and  _458
REMARK  187  A    between atoms: _457  and  _460
REMARK  188  A    between atoms: _460  and  _461
REMARK  189  A    between atoms: _464  and  _466
REMARK  190  A    between atoms: _466  and  _467
REMARK  191  A    between atoms: _466  and  _469
REMARK  192  A    between atoms: _469  and  _470
REMARK  193  A    between atoms: _470  and  _471
REMARK  194  A    between atoms: _474  and  _476
REMARK  195  A    between atoms: _476  and  _477
REMARK  196  A    between atoms: _476  and  _479
REMARK  197  A    between atoms: _479  and  _480
REMARK  198  A    between atoms: _480  and  _481
REMARK  199  A    between atoms: _486  and  _488
REMARK  200  A    between atoms: _488  and  _489
REMARK  201  A    between atoms: _488  and  _491
REMARK  202  A    between atoms: _491  and  _492
REMARK  203  A    between atoms: _492  and  _493
REMARK  204  A    between atoms: _498  and  _500
REMARK  205  A    between atoms: _500  and  _501
REMARK  206  A    between atoms: _500  and  _503
REMARK  207  A    between atoms: _503  and  _504
REMARK  208  A    between atoms: _504  and  _505
REMARK  209  A    between atoms: _508  and  _510
REMARK  210  A    between atoms: _510  and  _511
REMARK  211  A    between atoms: _510  and  _513
REMARK  212  A    between atoms: _513  and  _514
REMARK  213  A    between atoms: _519  and  _521
REMARK  214  A    between atoms: _521  and  _522
REMARK  215  A    between atoms: _521  and  _524
REMARK  216  A    between atoms: _524  and  _525
REMARK  217  A    between atoms: _528  and  _530
REMARK  218  A    between atoms: _530  and  _531
REMARK  219  A    between atoms: _530  and  _533
REMARK  220  A    between atoms: _533  and  _534
REMARK  221  A    between atoms: _537  and  _539
REMARK  222  A    between atoms: _539  and  _540
REMARK  223  A    between atoms: _543  and  _545
REMARK  224  A    between atoms: _545  and  _546
REMARK  225  A    between atoms: _545  and  _548
REMARK  226  A    between atoms: _548  and  _549
REMARK  227  A    between atoms: _552  and  _554
REMARK  228  A    between atoms: _554  and  _555
REMARK  229  A    between atoms: _554  and  _557
REMARK  230  A    between atoms: _557  and  _558
REMARK  231  A    between atoms: _558  and  _559
REMARK  232  A    between atoms: _564  and  _566
REMARK  233  A    between atoms: _566  and  _567
REMARK  234  A    between atoms: _566  and  _569
REMARK  235  A    between atoms: _569  and  _570
REMARK  236  A    between atoms: _573  and  _575
REMARK  237  A    between atoms: _575  and  _576
REMARK  238  A    between atoms: _575  and  _578
REMARK  239  A    between atoms: _578  and  _579
REMARK  240  A    between atoms: _579  and  _580
REMARK  241  A    between atoms: _582  and  _584
REMARK  242  A    between atoms: _584  and  _585
REMARK  243  A    between atoms: _584  and  _587
REMARK  244  A    between atoms: _587  and  _588
REMARK  245  A    between atoms: _591  and  _593
REMARK  246  A    between atoms: _593  and  _594
REMARK  247  A    between atoms: _593  and  _596
REMARK  248  A    between atoms: _596  and  _597
REMARK  249  A    between atoms: _600  and  _602
REMARK  250  A    between atoms: _602  and  _603
REMARK  251  A    between atoms: _602  and  _605
REMARK  252  A    between atoms: _605  and  _606
REMARK  253  A    between atoms: _609  and  _611
REMARK  254  A    between atoms: _611  and  _612
REMARK  255  A    between atoms: _614  and  _616
REMARK  256  A    between atoms: _616  and  _617
REMARK                            x       y       z     vdW  Elec       q    Type
REMARK                         _______ _______ _______ _____ _____    ______ ____
ROOT
ATOM      1  O   HOH     1      25.490  39.286  34.902  0.00  0.00    +0.000 OA
ENDROOT
TORSDOF 0
REMARK  Name = ../refined-set-2016/1ork/1ork_pocket.pdb
REMARK  256 active torsions:
REMARK  status: ('A' for Active; 'I' for Inactive)
REMARK    1  A    between atoms: _1  and  _3
REMARK    2  A    between atoms: _3  and  _4
REMARK    3  A    between atoms: _7  and  _9
REMARK    4  A    between atoms: _9  and  _10
REMARK    5  A    between atoms: _9  and  _12
REMARK    6  A    between atoms: _15  and  _17
REMARK    7  A    between atoms: _17  and  _18
REMARK    8  A    between atoms: _17  and  _20
REMARK    9  A    between atoms: _20  and  _21
REMARK   10  A    between atoms: _24  and  _26
REMARK   11  A    between atoms: _26  and  _27
REMARK   12  A    between atoms: _30  and  _32
REMARK   13  A    between atoms: _32  and  _33
REMARK   14  A    between atoms: _32  and  _35
REMARK   15  A    between atoms: _35  and  _36
REMARK   16  A    between atoms: _41  and  _43
REMARK   17  A    between atoms: _43  and  _44
REMARK   18  A    between atoms: _43  and  _46
REMARK   19  A    between atoms: _46  and  _47
REMARK   20  A    between atoms: _50  and  _52
REMARK   21  A    between atoms: _52  and  _53
REMARK   22  A    between atoms: _52  and  _55
REMARK   23  A    between atoms: _55  and  _56
REMARK   24  A    between atoms: _61  and  _62
REMARK   25  A    between atoms: _64  and  _66
REMARK   26  A    between atoms: _66  and  _67
REMARK   27  A    between atoms: _66  and  _69
REMARK   28  A    between atoms: _69  and  _70
REMARK   29  A    between atoms: _72  and  _74
REMARK   30  A    between atoms: _74  and  _75
REMARK   31  A    between atoms: _74  and  _77
REMARK   32  A    between atoms: _77  and  _78
REMARK   33  A    between atoms: _81  and  _83
REMARK   34  A    between atoms: _83  and  _84
REMARK   35  A    between atoms: _83  and  _86
REMARK   36  A    between atoms: _86  and  _87
REMARK   37  A    between atoms: _93  and  _95
REMARK   38  A    between atoms: _95  and  _96
REMARK   39  A    between atoms: _95  and  _98
REMARK   40  A    between atoms: _98  and  _99
REMARK   41  A    between atoms: _102  and  _104
REMARK   42  A    between atoms: _104  and  _105
REMARK   43  A    between atoms: _104  and  _107
REMARK   44  A    between atoms: _107  and  _108
REMARK   45  A    between atoms: _113  and  _115
REMARK   46  A    between atoms: _115  and  _116
REMARK   47  A    between atoms: _115  and  _118
REMARK   48  A    between atoms: _118  and  _119
REMARK   49  A    between atoms: _124  and  _126
REMARK   50  A    between atoms: _126  and  _127
REMARK   51  A    between atoms: _130  and  _132
REMARK   52  A    between atoms: _132  and  _133
REMARK   53  A    between atoms: _132  and  _135
REMARK   54  A    between atoms: _135  and  _136
REMARK   55  A    between atoms: _136  and  _137
REMARK   56  A    between atoms: _139  and  _141
REMARK   57  A    between atoms: _141  and  _142
REMARK   58  A    between atoms: _141  and  _144
REMARK   59  A    between atoms: _144  and  _145
REMARK   60  A    between atoms: _147  and  _149
REMARK   61  A    between atoms: _149  and  _150
REMARK   62  A    between atoms: _149  and  _152
REMARK   63  A    between atoms: _152  and  _153
REMARK   64  A    between atoms: _159  and  _161
REMARK   65  A    between atoms: _161  and  _162
REMARK   66  A    between atoms: _161  and  _164
REMARK   67  A    between atoms: _164  and  _165
REMARK   68  A    between atoms: _165  and  _166
REMARK   69  A    between atoms: _166  and  _167
REMARK   70  A    between atoms: _176  and  _178
REMARK   71  A    between atoms: _178  and  _179
REMARK   72  A    between atoms: _178  and  _181
REMARK   73  A    between atoms: _181  and  _182
REMARK   74  A    between atoms: _185  and  _187
REMARK   75  A    between atoms: _187  and  _188
REMARK   76  A    between atoms: _187  and  _190
REMARK   77  A    between atoms: _190  and  _191
REMARK   78  A    between atoms: _196  and  _198
REMARK   79  A    between atoms: _198  and  _199
REMARK   80  A    between atoms: _198  and  _201
REMARK   81  A    between atoms: _201  and  _202
REMARK   82  A    between atoms: _205  and  _207
REMARK   83  A    between atoms: _207  and  _208
REMARK   84  A    between atoms: _210  and  _212
REMARK   85  A    between atoms: _212  and  _213
REMARK   86  A    between atoms: _212  and  _215
REMARK   87  A    between atoms: _215  and  _216
REMARK   88  A    between atoms: _219  and  _221
REMARK   89  A    between atoms: _221  and  _222
REMARK   90  A    between atoms: _221  and  _224
REMARK   91  A    between atoms: _224  and  _225
REMARK   92  A    between atoms: _225  and  _226
REMARK   93  A    between atoms: _226  and  _227
REMARK   94  A    between atoms: _237  and  _238
REMARK   95  A    between atoms: _243  and  _245
REMARK   96  A    between atoms: _245  and  _246
REMARK   97  A    between atoms: _245  and  _248
REMARK   98  A    between atoms: _248  and  _249
REMARK   99  A    between atoms: _252  and  _254
REMARK  100  A    between atoms: _254  and  _255
REMARK  101  A    between atoms: _254  and  _257
REMARK  102  A    between atoms: _257  and  _258
REMARK  103  A    between atoms: _258  and  _259
REMARK  104  A    between atoms: _259  and  _260
REMARK  105  A    between atoms: _260  and  _261
REMARK  106  A    between atoms: _265  and  _267
REMARK  107  A    between atoms: _267  and  _268
REMARK  108  A    between atoms: _267  and  _270
REMARK  109  A    between atoms: _270  and  _271
REMARK  110  A    between atoms: _271  and  _272
REMARK  111  A    between atoms: _277  and  _279
REMARK  112  A    between atoms: _279  and  _280
REMARK  113  A    between atoms: _279  and  _282
REMARK  114  A    between atoms: _282  and  _283
REMARK  115  A    between atoms: _288  and  _289
REMARK  116  A    between atoms: _291  and  _293
REMARK  117  A    between atoms: _293  and  _294
REMARK  118  A    between atoms: _293  and  _296
REMARK  119  A    between atoms: _296  and  _297
REMARK  120  A    between atoms: _300  and  _302
REMARK  121  A    between atoms: _302  and  _303
REMARK  122  A    between atoms: _302  and  _305
REMARK  123  A    between atoms: _305  and  _306
REMARK  124  A    between atoms: _309  and  _311
REMARK  125  A    between atoms: _311  and  _312
REMARK  126  A    between atoms: _311  and  _314
REMARK  127  A    between atoms: _317  and  _319
REMARK  128  A    between atoms: _319  and  _320
REMARK  129  A    between atoms: _319  and  _322
REMARK  130  A    between atoms: _322  and  _323
REMARK  131  A    between atoms: _323  and  _324
REMARK  132  A    between atoms: _327  and  _329
REMARK  133  A    between atoms: _329  and  _330
REMARK  134  A    between atoms: _329  and  _332
REMARK  135  A    between atoms: _332  and  _333
REMARK  136  A    between atoms: _333  and  _334
REMARK  137  A    between atoms: _339  and  _341
REMARK  138  A    between atoms: _341  and  _342
REMARK  139  A    between atoms: _341  and  _344
REMARK  140  A    between atoms: _344  and  _345
REMARK  141  A    between atoms: _348  and  _350
REMARK  142  A    between atoms: _350  and  _351
REMARK  143  A    between atoms: _353  and  _355
REMARK  144  A    between atoms: _355  and  _356
REMARK  145  A    between atoms: _355  and  _358
REMARK  146  A    between atoms: _358  and  _359
REMARK  147  A    between atoms: _362  and  _364
REMARK  148  A    between atoms: _364  and  _365
REMARK  149  A    between atoms: _368  and  _370
REMARK  150  A    between atoms: _370  and  _371
REMARK  151  A    between atoms: _370  and  _373
REMARK  152  A    between atoms: _373  and  _374
REMARK  153  A    between atoms: _377  and  _379
REMARK  154  A    between atoms: _379  and  _380
REMARK  155  A    between atoms: _379  and  _382
REMARK  156  A    between atoms: _382  and  _383
REMARK  157  A    between atoms: _385  and  _387
REMARK  158  A    between atoms: _387  and  _388
REMARK  159  A    between atoms: _391  and  _393
REMARK  160  A    between atoms: _393  and  _394
REMARK  161  A    between atoms: _393  and  _396
REMARK  162  A    between atoms: _399  and  _401
REMARK  163  A    between atoms: _401  and  _402
REMARK  164  A    between atoms: _401  and  _404
REMARK  165  A    between atoms: _404  and  _405
REMARK  166  A    between atoms: _407  and  _409
REMARK  167  A    between atoms: _409  and  _410
REMARK  168  A    between atoms: _409  and  _412
REMARK  169  A    between atoms: _412  and  _413
REMARK  170  A    between atoms: _418  and  _420
REMARK  171  A    between atoms: _420  and  _421
REMARK  172  A    between atoms: _420  and  _423
REMARK  173  A    between atoms: _423  and  _424
REMARK  174  A    between atoms: _427  and  _429
REMARK  175  A    between atoms: _429  and  _430
REMARK  176  A    between atoms: _429  and  _432
REMARK  177  A    between atoms: _432  and  _433
REMARK  178  A    between atoms: _436  and  _438
REMARK  179  A    between atoms: _438  and  _439
REMARK  180  A    between atoms: _441  and  _443
REMARK  181  A    between atoms: _443  and  _444
REMARK  182  A    between atoms: _447  and  _449
REMARK  183  A    between atoms: _449  and  _450
REMARK  184  A    between atoms: _449  and  _452
REMARK  185  A    between atoms: _455  and  _457
REMARK  186  A    between atoms: _457  and  _458
REMARK  187  A    between atoms: _457  and  _460
REMARK  188  A    between atoms: _460  and  _461
REMARK  189  A    between atoms: _464  and  _466
REMARK  190  A    between atoms: _466  and  _467
REMARK  191  A    between atoms: _466  and  _469
REMARK  192  A    between atoms: _469  and  _470
REMARK  193  A    between atoms: _470  and  _471
REMARK  194  A    between atoms: _474  and  _476
REMARK  195  A    between atoms: _476  and  _477
REMARK  196  A    between atoms: _476  and  _479
REMARK  197  A    between atoms: _479  and  _480
REMARK  198  A    between atoms: _480  and  _481
REMARK  199  A    between atoms: _486  and  _488
REMARK  200  A    between atoms: _488  and  _489
REMARK  201  A    between atoms: _488  and  _491
REMARK  202  A    between atoms: _491  and  _492
REMARK  203  A    between atoms: _492  and  _493
REMARK  204  A    between atoms: _498  and  _500
REMARK  205  A    between atoms: _500  and  _501
REMARK  206  A    between atoms: _500  and  _503
REMARK  207  A    between atoms: _503  and  _504
REMARK  208  A    between atoms: _504  and  _505
REMARK  209  A    between atoms: _508  and  _510
REMARK  210  A    between atoms: _510  and  _511
REMARK  211  A    between atoms: _510  and  _513
REMARK  212  A    between atoms: _513  and  _514
REMARK  213  A    between atoms: _519  and  _521
REMARK  214  A    between atoms: _521  and  _522
REMARK  215  A    between atoms: _521  and  _524
REMARK  216  A    between atoms: _524  and  _525
REMARK  217  A    between atoms: _528  and  _530
REMARK  218  A    between atoms: _530  and  _531
REMARK  219  A    between atoms: _530  and  _533
REMARK  220  A    between atoms: _533  and  _534
REMARK  221  A    between atoms: _537  and  _539
REMARK  222  A    between atoms: _539  and  _540
REMARK  223  A    between atoms: _543  and  _545
REMARK  224  A    between atoms: _545  and  _546
REMARK  225  A    between atoms: _545  and  _548
REMARK  226  A    between atoms: _548  and  _549
REMARK  227  A    between atoms: _552  and  _554
REMARK  228  A    between atoms: _554  and  _555
REMARK  229  A    between atoms: _554  and  _557
REMARK  230  A    between atoms: _557  and  _558
REMARK  231  A    between atoms: _558  and  _559
REMARK  232  A    between atoms: _564  and  _566
REMARK  233  A    between atoms: _566  and  _567
REMARK  234  A    between atoms: _566  and  _569
REMARK  235  A    between atoms: _569  and  _570
REMARK  236  A    between atoms: _573  and  _575
REMARK  237  A    between atoms: _575  and  _576
REMARK  238  A    between atoms: _575  and  _578
REMARK  239  A    between atoms: _578  and  _579
REMARK  240  A    between atoms: _579  and  _580
REMARK  241  A    between atoms: _582  and  _584
REMARK  242  A    between atoms: _584  and  _585
REMARK  243  A    between atoms: _584  and  _587
REMARK  244  A    between atoms: _587  and  _588
REMARK  245  A    between atoms: _591  and  _593
REMARK  246  A    between atoms: _593  and  _594
REMARK  247  A    between atoms: _593  and  _596
REMARK  248  A    between atoms: _596  and  _597
REMARK  249  A    between atoms: _600  and  _602
REMARK  250  A    between atoms: _602  and  _603
REMARK  251  A    between atoms: _602  and  _605
REMARK  252  A    between atoms: _605  and  _606
REMARK  253  A    between atoms: _609  and  _611
REMARK  254  A    between atoms: _611  and  _612
REMARK  255  A    between atoms: _614  and  _616
REMARK  256  A    between atoms: _616  and  _617
REMARK                            x       y       z     vdW  Elec       q    Type
REMARK                         _______ _______ _______ _____ _____    ______ ____
ROOT
ATOM      1  O   HOH     1      31.708  43.667  36.587  0.00  0.00    +0.000 OA
ENDROOT
TORSDOF 0
REMARK  Name = ../refined-set-2016/1ork/1ork_pocket.pdb
REMARK  256 active torsions:
REMARK  status: ('A' for Active; 'I' for Inactive)
REMARK    1  A    between atoms: _1  and  _3
REMARK    2  A    between atoms: _3  and  _4
REMARK    3  A    between atoms: _7  and  _9
REMARK    4  A    between atoms: _9  and  _10
REMARK    5  A    between atoms: _9  and  _12
REMARK    6  A    between atoms: _15  and  _17
REMARK    7  A    between atoms: _17  and  _18
REMARK    8  A    between atoms: _17  and  _20
REMARK    9  A    between atoms: _20  and  _21
REMARK   10  A    between atoms: _24  and  _26
REMARK   11  A    between atoms: _26  and  _27
REMARK   12  A    between atoms: _30  and  _32
REMARK   13  A    between atoms: _32  and  _33
REMARK   14  A    between atoms: _32  and  _35
REMARK   15  A    between atoms: _35  and  _36
REMARK   16  A    between atoms: _41  and  _43
REMARK   17  A    between atoms: _43  and  _44
REMARK   18  A    between atoms: _43  and  _46
REMARK   19  A    between atoms: _46  and  _47
REMARK   20  A    between atoms: _50  and  _52
REMARK   21  A    between atoms: _52  and  _53
REMARK   22  A    between atoms: _52  and  _55
REMARK   23  A    between atoms: _55  and  _56
REMARK   24  A    between atoms: _61  and  _62
REMARK   25  A    between atoms: _64  and  _66
REMARK   26  A    between atoms: _66  and  _67
REMARK   27  A    between atoms: _66  and  _69
REMARK   28  A    between atoms: _69  and  _70
REMARK   29  A    between atoms: _72  and  _74
REMARK   30  A    between atoms: _74  and  _75
REMARK   31  A    between atoms: _74  and  _77
REMARK   32  A    between atoms: _77  and  _78
REMARK   33  A    between atoms: _81  and  _83
REMARK   34  A    between atoms: _83  and  _84
REMARK   35  A    between atoms: _83  and  _86
REMARK   36  A    between atoms: _86  and  _87
REMARK   37  A    between atoms: _93  and  _95
REMARK   38  A    between atoms: _95  and  _96
REMARK   39  A    between atoms: _95  and  _98
REMARK   40  A    between atoms: _98  and  _99
REMARK   41  A    between atoms: _102  and  _104
REMARK   42  A    between atoms: _104  and  _105
REMARK   43  A    between atoms: _104  and  _107
REMARK   44  A    between atoms: _107  and  _108
REMARK   45  A    between atoms: _113  and  _115
REMARK   46  A    between atoms: _115  and  _116
REMARK   47  A    between atoms: _115  and  _118
REMARK   48  A    between atoms: _118  and  _119
REMARK   49  A    between atoms: _124  and  _126
REMARK   50  A    between atoms: _126  and  _127
REMARK   51  A    between atoms: _130  and  _132
REMARK   52  A    between atoms: _132  and  _133
REMARK   53  A    between atoms: _132  and  _135
REMARK   54  A    between atoms: _135  and  _136
REMARK   55  A    between atoms: _136  and  _137
REMARK   56  A    between atoms: _139  and  _141
REMARK   57  A    between atoms: _141  and  _142
REMARK   58  A    between atoms: _141  and  _144
REMARK   59  A    between atoms: _144  and  _145
REMARK   60  A    between atoms: _147  and  _149
REMARK   61  A    between atoms: _149  and  _150
REMARK   62  A    between atoms: _149  and  _152
REMARK   63  A    between atoms: _152  and  _153
REMARK   64  A    between atoms: _159  and  _161
REMARK   65  A    between atoms: _161  and  _162
REMARK   66  A    between atoms: _161  and  _164
REMARK   67  A    between atoms: _164  and  _165
REMARK   68  A    between atoms: _165  and  _166
REMARK   69  A    between atoms: _166  and  _167
REMARK   70  A    between atoms: _176  and  _178
REMARK   71  A    between atoms: _178  and  _179
REMARK   72  A    between atoms: _178  and  _181
REMARK   73  A    between atoms: _181  and  _182
REMARK   74  A    between atoms: _185  and  _187
REMARK   75  A    between atoms: _187  and  _188
REMARK   76  A    between atoms: _187  and  _190
REMARK   77  A    between atoms: _190  and  _191
REMARK   78  A    between atoms: _196  and  _198
REMARK   79  A    between atoms: _198  and  _199
REMARK   80  A    between atoms: _198  and  _201
REMARK   81  A    between atoms: _201  and  _202
REMARK   82  A    between atoms: _205  and  _207
REMARK   83  A    between atoms: _207  and  _208
REMARK   84  A    between atoms: _210  and  _212
REMARK   85  A    between atoms: _212  and  _213
REMARK   86  A    between atoms: _212  and  _215
REMARK   87  A    between atoms: _215  and  _216
REMARK   88  A    between atoms: _219  and  _221
REMARK   89  A    between atoms: _221  and  _222
REMARK   90  A    between atoms: _221  and  _224
REMARK   91  A    between atoms: _224  and  _225
REMARK   92  A    between atoms: _225  and  _226
REMARK   93  A    between atoms: _226  and  _227
REMARK   94  A    between atoms: _237  and  _238
REMARK   95  A    between atoms: _243  and  _245
REMARK   96  A    between atoms: _245  and  _246
REMARK   97  A    between atoms: _245  and  _248
REMARK   98  A    between atoms: _248  and  _249
REMARK   99  A    between atoms: _252  and  _254
REMARK  100  A    between atoms: _254  and  _255
REMARK  101  A    between atoms: _254  and  _257
REMARK  102  A    between atoms: _257  and  _258
REMARK  103  A    between atoms: _258  and  _259
REMARK  104  A    between atoms: _259  and  _260
REMARK  105  A    between atoms: _260  and  _261
REMARK  106  A    between atoms: _265  and  _267
REMARK  107  A    between atoms: _267  and  _268
REMARK  108  A    between atoms: _267  and  _270
REMARK  109  A    between atoms: _270  and  _271
REMARK  110  A    between atoms: _271  and  _272
REMARK  111  A    between atoms: _277  and  _279
REMARK  112  A    between atoms: _279  and  _280
REMARK  113  A    between atoms: _279  and  _282
REMARK  114  A    between atoms: _282  and  _283
REMARK  115  A    between atoms: _288  and  _289
REMARK  116  A    between atoms: _291  and  _293
REMARK  117  A    between atoms: _293  and  _294
REMARK  118  A    between atoms: _293  and  _296
REMARK  119  A    between atoms: _296  and  _297
REMARK  120  A    between atoms: _300  and  _302
REMARK  121  A    between atoms: _302  and  _303
REMARK  122  A    between atoms: _302  and  _305
REMARK  123  A    between atoms: _305  and  _306
REMARK  124  A    between atoms: _309  and  _311
REMARK  125  A    between atoms: _311  and  _312
REMARK  126  A    between atoms: _311  and  _314
REMARK  127  A    between atoms: _317  and  _319
REMARK  128  A    between atoms: _319  and  _320
REMARK  129  A    between atoms: _319  and  _322
REMARK  130  A    between atoms: _322  and  _323
REMARK  131  A    between atoms: _323  and  _324
REMARK  132  A    between atoms: _327  and  _329
REMARK  133  A    between atoms: _329  and  _330
REMARK  134  A    between atoms: _329  and  _332
REMARK  135  A    between atoms: _332  and  _333
REMARK  136  A    between atoms: _333  and  _334
REMARK  137  A    between atoms: _339  and  _341
REMARK  138  A    between atoms: _341  and  _342
REMARK  139  A    between atoms: _341  and  _344
REMARK  140  A    between atoms: _344  and  _345
REMARK  141  A    between atoms: _348  and  _350
REMARK  142  A    between atoms: _350  and  _351
REMARK  143  A    between atoms: _353  and  _355
REMARK  144  A    between atoms: _355  and  _356
REMARK  145  A    between atoms: _355  and  _358
REMARK  146  A    between atoms: _358  and  _359
REMARK  147  A    between atoms: _362  and  _364
REMARK  148  A    between atoms: _364  and  _365
REMARK  149  A    between atoms: _368  and  _370
REMARK  150  A    between atoms: _370  and  _371
REMARK  151  A    between atoms: _370  and  _373
REMARK  152  A    between atoms: _373  and  _374
REMARK  153  A    between atoms: _377  and  _379
REMARK  154  A    between atoms: _379  and  _380
REMARK  155  A    between atoms: _379  and  _382
REMARK  156  A    between atoms: _382  and  _383
REMARK  157  A    between atoms: _385  and  _387
REMARK  158  A    between atoms: _387  and  _388
REMARK  159  A    between atoms: _391  and  _393
REMARK  160  A    between atoms: _393  and  _394
REMARK  161  A    between atoms: _393  and  _396
REMARK  162  A    between atoms: _399  and  _401
REMARK  163  A    between atoms: _401  and  _402
REMARK  164  A    between atoms: _401  and  _404
REMARK  165  A    between atoms: _404  and  _405
REMARK  166  A    between atoms: _407  and  _409
REMARK  167  A    between atoms: _409  and  _410
REMARK  168  A    between atoms: _409  and  _412
REMARK  169  A    between atoms: _412  and  _413
REMARK  170  A    between atoms: _418  and  _420
REMARK  171  A    between atoms: _420  and  _421
REMARK  172  A    between atoms: _420  and  _423
REMARK  173  A    between atoms: _423  and  _424
REMARK  174  A    between atoms: _427  and  _429
REMARK  175  A    between atoms: _429  and  _430
REMARK  176  A    between atoms: _429  and  _432
REMARK  177  A    between atoms: _432  and  _433
REMARK  178  A    between atoms: _436  and  _438
REMARK  179  A    between atoms: _438  and  _439
REMARK  180  A    between atoms: _441  and  _443
REMARK  181  A    between atoms: _443  and  _444
REMARK  182  A    between atoms: _447  and  _449
REMARK  183  A    between atoms: _449  and  _450
REMARK  184  A    between atoms: _449  and  _452
REMARK  185  A    between atoms: _455  and  _457
REMARK  186  A    between atoms: _457  and  _458
REMARK  187  A    between atoms: _457  and  _460
REMARK  188  A    between atoms: _460  and  _461
REMARK  189  A    between atoms: _464  and  _466
REMARK  190  A    between atoms: _466  and  _467
REMARK  191  A    between atoms: _466  and  _469
REMARK  192  A    between atoms: _469  and  _470
REMARK  193  A    between atoms: _470  and  _471
REMARK  194  A    between atoms: _474  and  _476
REMARK  195  A    between atoms: _476  and  _477
REMARK  196  A    between atoms: _476  and  _479
REMARK  197  A    between atoms: _479  and  _480
REMARK  198  A    between atoms: _480  and  _481
REMARK  199  A    between atoms: _486  and  _488
REMARK  200  A    between atoms: _488  and  _489
REMARK  201  A    between atoms: _488  and  _491
REMARK  202  A    between atoms: _491  and  _492
REMARK  203  A    between atoms: _492  and  _493
REMARK  204  A    between atoms: _498  and  _500
REMARK  205  A    between atoms: _500  and  _501
REMARK  206  A    between atoms: _500  and  _503
REMARK  207  A    between atoms: _503  and  _504
REMARK  208  A    between atoms: _504  and  _505
REMARK  209  A    between atoms: _508  and  _510
REMARK  210  A    between atoms: _510  and  _511
REMARK  211  A    between atoms: _510  and  _513
REMARK  212  A    between atoms: _513  and  _514
REMARK  213  A    between atoms: _519  and  _521
REMARK  214  A    between atoms: _521  and  _522
REMARK  215  A    between atoms: _521  and  _524
REMARK  216  A    between atoms: _524  and  _525
REMARK  217  A    between atoms: _528  and  _530
REMARK  218  A    between atoms: _530  and  _531
REMARK  219  A    between atoms: _530  and  _533
REMARK  220  A    between atoms: _533  and  _534
REMARK  221  A    between atoms: _537  and  _539
REMARK  222  A    between atoms: _539  and  _540
REMARK  223  A    between atoms: _543  and  _545
REMARK  224  A    between atoms: _545  and  _546
REMARK  225  A    between atoms: _545  and  _548
REMARK  226  A    between atoms: _548  and  _549
REMARK  227  A    between atoms: _552  and  _554
REMARK  228  A    between atoms: _554  and  _555
REMARK  229  A    between atoms: _554  and  _557
REMARK  230  A    between atoms: _557  and  _558
REMARK  231  A    between atoms: _558  and  _559
REMARK  232  A    between atoms: _564  and  _566
REMARK  233  A    between atoms: _566  and  _567
REMARK  234  A    between atoms: _566  and  _569
REMARK  235  A    between atoms: _569  and  _570
REMARK  236  A    between atoms: _573  and  _575
REMARK  237  A    between atoms: _575  and  _576
REMARK  238  A    between atoms: _575  and  _578
REMARK  239  A    between atoms: _578  and  _579
REMARK  240  A    between atoms: _579  and  _580
REMARK  241  A    between atoms: _582  and  _584
REMARK  242  A    between atoms: _584  and  _585
REMARK  243  A    between atoms: _584  and  _587
REMARK  244  A    between atoms: _587  and  _588
REMARK  245  A    between atoms: _591  and  _593
REMARK  246  A    between atoms: _593  and  _594
REMARK  247  A    between atoms: _593  and  _596
REMARK  248  A    between atoms: _596  and  _597
REMARK  249  A    between atoms: _600  and  _602
REMARK  250  A    between atoms: _602  and  _603
REMARK  251  A    between atoms: _602  and  _605
REMARK  252  A    between atoms: _605  and  _606
REMARK  253  A    between atoms: _609  and  _611
REMARK  254  A    between atoms: _611  and  _612
REMARK  255  A    between atoms: _614  and  _616
REMARK  256  A    between atoms: _616  and  _617
REMARK                            x       y       z     vdW  Elec       q    Type
REMARK                         _______ _______ _______ _____ _____    ______ ____
ROOT
ATOM      1  O   HOH     1      29.589  47.394  38.031  0.00  0.00    +0.000 OA
ENDROOT
TORSDOF 0
