REMARK  Name = ../refined-set-2016/4zl4/4zl4_pocket.pdb
REMARK  272 active torsions:
REMARK  status: ('A' for Active; 'I' for Inactive)
REMARK    1  A    between atoms: _1  and  _3
REMARK    2  A    between atoms: _3  and  _4
REMARK    3  A    between atoms: _3  and  _6
REMARK    4  A    between atoms: _6  and  _7
REMARK    5  A    between atoms: _10  and  _12
REMARK    6  A    between atoms: _12  and  _13
REMARK    7  A    between atoms: _12  and  _15
REMARK    8  A    between atoms: _15  and  _16
REMARK    9  A    between atoms: _19  and  _21
REMARK   10  A    between atoms: _21  and  _22
REMARK   11  A    between atoms: _21  and  _24
REMARK   12  A    between atoms: _24  and  _25
REMARK   13  A    between atoms: _28  and  _30
REMARK   14  A    between atoms: _30  and  _31
REMARK   15  A    between atoms: _30  and  _33
REMARK   16  A    between atoms: _33  and  _34
REMARK   17  A    between atoms: _34  and  _35
REMARK   18  A    between atoms: _38  and  _40
REMARK   19  A    between atoms: _40  and  _41
REMARK   20  A    between atoms: _40  and  _43
REMARK   21  A    between atoms: _43  and  _44
REMARK   22  A    between atoms: _49  and  _50
REMARK   23  A    between atoms: _52  and  _54
REMARK   24  A    between atoms: _54  and  _55
REMARK   25  A    between atoms: _58  and  _60
REMARK   26  A    between atoms: _60  and  _61
REMARK   27  A    between atoms: _60  and  _63
REMARK   28  A    between atoms: _63  and  _64
REMARK   29  A    between atoms: _69  and  _70
REMARK   30  A    between atoms: _72  and  _74
REMARK   31  A    between atoms: _74  and  _75
REMARK   32  A    between atoms: _74  and  _77
REMARK   33  A    between atoms: _77  and  _78
REMARK   34  A    between atoms: _83  and  _84
REMARK   35  A    between atoms: _86  and  _88
REMARK   36  A    between atoms: _88  and  _89
REMARK   37  A    between atoms: _88  and  _91
REMARK   38  A    between atoms: _91  and  _92
REMARK   39  A    between atoms: _95  and  _97
REMARK   40  A    between atoms: _97  and  _98
REMARK   41  A    between atoms: _97  and  _100
REMARK   42  A    between atoms: _100  and  _101
REMARK   43  A    between atoms: _104  and  _106
REMARK   44  A    between atoms: _106  and  _107
REMARK   45  A    between atoms: _106  and  _109
REMARK   46  A    between atoms: _109  and  _110
REMARK   47  A    between atoms: _113  and  _115
REMARK   48  A    between atoms: _115  and  _116
REMARK   49  A    between atoms: _115  and  _118
REMARK   50  A    between atoms: _118  and  _119
REMARK   51  A    between atoms: _122  and  _124
REMARK   52  A    between atoms: _124  and  _125
REMARK   53  A    between atoms: _127  and  _129
REMARK   54  A    between atoms: _129  and  _130
REMARK   55  A    between atoms: _129  and  _132
REMARK   56  A    between atoms: _132  and  _133
REMARK   57  A    between atoms: _135  and  _137
REMARK   58  A    between atoms: _137  and  _138
REMARK   59  A    between atoms: _137  and  _140
REMARK   60  A    between atoms: _140  and  _141
REMARK   61  A    between atoms: _143  and  _145
REMARK   62  A    between atoms: _145  and  _146
REMARK   63  A    between atoms: _145  and  _148
REMARK   64  A    between atoms: _148  and  _149
REMARK   65  A    between atoms: _151  and  _153
REMARK   66  A    between atoms: _153  and  _154
REMARK   67  A    between atoms: _153  and  _156
REMARK   68  A    between atoms: _156  and  _157
REMARK   69  A    between atoms: _162  and  _164
REMARK   70  A    between atoms: _164  and  _165
REMARK   71  A    between atoms: _164  and  _167
REMARK   72  A    between atoms: _167  and  _168
REMARK   73  A    between atoms: _168  and  _169
REMARK   74  A    between atoms: _174  and  _176
REMARK   75  A    between atoms: _176  and  _177
REMARK   76  A    between atoms: _176  and  _179
REMARK   77  A    between atoms: _179  and  _180
REMARK   78  A    between atoms: _182  and  _184
REMARK   79  A    between atoms: _184  and  _185
REMARK   80  A    between atoms: _184  and  _187
REMARK   81  A    between atoms: _187  and  _188
REMARK   82  A    between atoms: _193  and  _194
REMARK   83  A    between atoms: _196  and  _198
REMARK   84  A    between atoms: _198  and  _199
REMARK   85  A    between atoms: _198  and  _201
REMARK   86  A    between atoms: _203  and  _205
REMARK   87  A    between atoms: _205  and  _206
REMARK   88  A    between atoms: _205  and  _208
REMARK   89  A    between atoms: _208  and  _209
REMARK   90  A    between atoms: _209  and  _210
REMARK   91  A    between atoms: _213  and  _215
REMARK   92  A    between atoms: _215  and  _216
REMARK   93  A    between atoms: _218  and  _220
REMARK   94  A    between atoms: _220  and  _221
REMARK   95  A    between atoms: _220  and  _223
REMARK   96  A    between atoms: _223  and  _224
REMARK   97  A    between atoms: _226  and  _228
REMARK   98  A    between atoms: _228  and  _229
REMARK   99  A    between atoms: _228  and  _231
REMARK  100  A    between atoms: _231  and  _232
REMARK  101  A    between atoms: _235  and  _237
REMARK  102  A    between atoms: _237  and  _238
REMARK  103  A    between atoms: _237  and  _240
REMARK  104  A    between atoms: _240  and  _241
REMARK  105  A    between atoms: _241  and  _242
REMARK  106  A    between atoms: _245  and  _247
REMARK  107  A    between atoms: _247  and  _248
REMARK  108  A    between atoms: _247  and  _250
REMARK  109  A    between atoms: _250  and  _251
REMARK  110  A    between atoms: _253  and  _255
REMARK  111  A    between atoms: _255  and  _256
REMARK  112  A    between atoms: _255  and  _258
REMARK  113  A    between atoms: _258  and  _259
REMARK  114  A    between atoms: _262  and  _264
REMARK  115  A    between atoms: _264  and  _265
REMARK  116  A    between atoms: _264  and  _267
REMARK  117  A    between atoms: _267  and  _268
REMARK  118  A    between atoms: _274  and  _276
REMARK  119  A    between atoms: _276  and  _277
REMARK  120  A    between atoms: _276  and  _279
REMARK  121  A    between atoms: _279  and  _280
REMARK  122  A    between atoms: _283  and  _285
REMARK  123  A    between atoms: _285  and  _286
REMARK  124  A    between atoms: _285  and  _288
REMARK  125  A    between atoms: _288  and  _289
REMARK  126  A    between atoms: _294  and  _295
REMARK  127  A    between atoms: _297  and  _299
REMARK  128  A    between atoms: _299  and  _300
REMARK  129  A    between atoms: _299  and  _302
REMARK  130  A    between atoms: _302  and  _303
REMARK  131  A    between atoms: _303  and  _304
REMARK  132  A    between atoms: _309  and  _311
REMARK  133  A    between atoms: _311  and  _312
REMARK  134  A    between atoms: _311  and  _314
REMARK  135  A    between atoms: _314  and  _315
REMARK  136  A    between atoms: _315  and  _316
REMARK  137  A    between atoms: _321  and  _323
REMARK  138  A    between atoms: _323  and  _324
REMARK  139  A    between atoms: _327  and  _329
REMARK  140  A    between atoms: _329  and  _330
REMARK  141  A    between atoms: _332  and  _334
REMARK  142  A    between atoms: _334  and  _335
REMARK  143  A    between atoms: _334  and  _337
REMARK  144  A    between atoms: _340  and  _342
REMARK  145  A    between atoms: _342  and  _343
REMARK  146  A    between atoms: _342  and  _345
REMARK  147  A    between atoms: _345  and  _346
REMARK  148  A    between atoms: _349  and  _351
REMARK  149  A    between atoms: _351  and  _352
REMARK  150  A    between atoms: _354  and  _356
REMARK  151  A    between atoms: _356  and  _357
REMARK  152  A    between atoms: _356  and  _359
REMARK  153  A    between atoms: _359  and  _360
REMARK  154  A    between atoms: _360  and  _361
REMARK  155  A    between atoms: _363  and  _365
REMARK  156  A    between atoms: _365  and  _366
REMARK  157  A    between atoms: _365  and  _368
REMARK  158  A    between atoms: _368  and  _369
REMARK  159  A    between atoms: _371  and  _373
REMARK  160  A    between atoms: _373  and  _374
REMARK  161  A    between atoms: _373  and  _376
REMARK  162  A    between atoms: _376  and  _377
REMARK  163  A    between atoms: _377  and  _378
REMARK  164  A    between atoms: _378  and  _379
REMARK  165  A    between atoms: _379  and  _380
REMARK  166  A    between atoms: _384  and  _386
REMARK  167  A    between atoms: _386  and  _387
REMARK  168  A    between atoms: _386  and  _389
REMARK  169  A    between atoms: _389  and  _390
REMARK  170  A    between atoms: _390  and  _391
REMARK  171  A    between atoms: _391  and  _392
REMARK  172  A    between atoms: _401  and  _403
REMARK  173  A    between atoms: _403  and  _404
REMARK  174  A    between atoms: _403  and  _406
REMARK  175  A    between atoms: _406  and  _407
REMARK  176  A    between atoms: _412  and  _413
REMARK  177  A    between atoms: _415  and  _417
REMARK  178  A    between atoms: _417  and  _418
REMARK  179  A    between atoms: _417  and  _420
REMARK  180  A    between atoms: _420  and  _421
REMARK  181  A    between atoms: _426  and  _427
REMARK  182  A    between atoms: _429  and  _431
REMARK  183  A    between atoms: _431  and  _432
REMARK  184  A    between atoms: _431  and  _434
REMARK  185  A    between atoms: _434  and  _435
REMARK  186  A    between atoms: _440  and  _441
REMARK  187  A    between atoms: _443  and  _445
REMARK  188  A    between atoms: _445  and  _446
REMARK  189  A    between atoms: _445  and  _448
REMARK  190  A    between atoms: _448  and  _449
REMARK  191  A    between atoms: _452  and  _454
REMARK  192  A    between atoms: _454  and  _455
REMARK  193  A    between atoms: _454  and  _457
REMARK  194  A    between atoms: _460  and  _462
REMARK  195  A    between atoms: _462  and  _463
REMARK  196  A    between atoms: _462  and  _465
REMARK  197  A    between atoms: _465  and  _466
REMARK  198  A    between atoms: _469  and  _471
REMARK  199  A    between atoms: _471  and  _472
REMARK  200  A    between atoms: _471  and  _474
REMARK  201  A    between atoms: _474  and  _475
REMARK  202  A    between atoms: _477  and  _479
REMARK  203  A    between atoms: _479  and  _480
REMARK  204  A    between atoms: _482  and  _484
REMARK  205  A    between atoms: _484  and  _485
REMARK  206  A    between atoms: _484  and  _487
REMARK  207  A    between atoms: _487  and  _488
REMARK  208  A    between atoms: _490  and  _492
REMARK  209  A    between atoms: _492  and  _493
REMARK  210  A    between atoms: _492  and  _495
REMARK  211  A    between atoms: _495  and  _496
REMARK  212  A    between atoms: _499  and  _501
REMARK  213  A    between atoms: _501  and  _502
REMARK  214  A    between atoms: _501  and  _504
REMARK  215  A    between atoms: _504  and  _505
REMARK  216  A    between atoms: _511  and  _513
REMARK  217  A    between atoms: _513  and  _514
REMARK  218  A    between atoms: _513  and  _516
REMARK  219  A    between atoms: _516  and  _517
REMARK  220  A    between atoms: _520  and  _522
REMARK  221  A    between atoms: _522  and  _523
REMARK  222  A    between atoms: _522  and  _525
REMARK  223  A    between atoms: _525  and  _526
REMARK  224  A    between atoms: _531  and  _533
REMARK  225  A    between atoms: _533  and  _534
REMARK  226  A    between atoms: _533  and  _536
REMARK  227  A    between atoms: _536  and  _537
REMARK  228  A    between atoms: _542  and  _543
REMARK  229  A    between atoms: _545  and  _547
REMARK  230  A    between atoms: _547  and  _548
REMARK  231  A    between atoms: _547  and  _550
REMARK  232  A    between atoms: _550  and  _551
REMARK  233  A    between atoms: _551  and  _552
REMARK  234  A    between atoms: _552  and  _553
REMARK  235  A    between atoms: _553  and  _554
REMARK  236  A    between atoms: _558  and  _560
REMARK  237  A    between atoms: _560  and  _561
REMARK  238  A    between atoms: _560  and  _563
REMARK  239  A    between atoms: _563  and  _564
REMARK  240  A    between atoms: _564  and  _565
REMARK  241  A    between atoms: _568  and  _570
REMARK  242  A    between atoms: _570  and  _571
REMARK  243  A    between atoms: _570  and  _573
REMARK  244  A    between atoms: _573  and  _574
REMARK  245  A    between atoms: _574  and  _575
REMARK  246  A    between atoms: _575  and  _576
REMARK  247  A    between atoms: _576  and  _577
REMARK  248  A    between atoms: _581  and  _583
REMARK  249  A    between atoms: _583  and  _584
REMARK  250  A    between atoms: _583  and  _586
REMARK  251  A    between atoms: _589  and  _591
REMARK  252  A    between atoms: _591  and  _592
REMARK  253  A    between atoms: _591  and  _594
REMARK  254  A    between atoms: _594  and  _595
REMARK  255  A    between atoms: _600  and  _602
REMARK  256  A    between atoms: _602  and  _603
REMARK  257  A    between atoms: _602  and  _605
REMARK  258  A    between atoms: _605  and  _606
REMARK  259  A    between atoms: _606  and  _607
REMARK  260  A    between atoms: _607  and  _608
REMARK  261  A    between atoms: _608  and  _609
REMARK  262  A    between atoms: _614  and  _615
REMARK  263  A    between atoms: _620  and  _622
REMARK  264  A    between atoms: _622  and  _623
REMARK  265  A    between atoms: _622  and  _625
REMARK  266  A    between atoms: _625  and  _626
REMARK  267  A    between atoms: _629  and  _631
REMARK  268  A    between atoms: _631  and  _632
REMARK  269  A    between atoms: _634  and  _636
REMARK  270  A    between atoms: _636  and  _637
REMARK  271  A    between atoms: _636  and  _639
REMARK  272  A    between atoms: _639  and  _640
REMARK                            x       y       z     vdW  Elec       q    Type
REMARK                         _______ _______ _______ _____ _____    ______ ____
ROOT
ATOM      1  CA  TYR A   5       4.848 103.918  34.769  0.00  0.00    +0.153 C 
ENDROOT
BRANCH   1   2
ATOM      2  C   TYR A   5       3.947 103.686  35.984  0.00  0.00    +0.241 C 
ATOM      3  N   ALA A   6       4.486 104.006  37.166  0.00  0.00    -0.297 N 
ATOM      4  H   ALA A   6       5.418 104.468  37.162  0.00  0.00    +0.150 HD
ATOM      5  O   TYR A   5       2.804 103.237  35.839  0.00  0.00    -0.273 OA
BRANCH   3   6
ATOM      6  CA  ALA A   6       3.861 103.753  38.461  0.00  0.00    +0.149 C 
ATOM      7  CB  ALA A   6       2.459 104.402  38.532  0.00  0.00    +0.031 C 
BRANCH   6   8
ATOM      8  C   ALA A   6       3.789 102.243  38.773  0.00  0.00    +0.241 C 
ATOM      9  O   ALA A   6       3.026 101.819  39.642  0.00  0.00    -0.273 OA
ATOM     10  N   TYR A   7       4.597 101.456  38.065  0.00  0.00    -0.297 N 
ATOM     11  H   TYR A   7       5.118 101.873  37.267  0.00  0.00    +0.150 HD
BRANCH  10  12
ATOM     12  CA  TYR A   7       4.788 100.038  38.352  0.00  0.00    +0.153 C 
BRANCH  12  13
ATOM     13  C   TYR A   7       6.156  99.642  37.802  0.00  0.00    +0.241 C 
ATOM     14  N   TYR A   8       6.503  98.376  37.999  0.00  0.00    -0.298 N 
ATOM     15  H   TYR A   8       5.873  97.769  38.562  0.00  0.00    +0.150 HD
ATOM     16  O   TYR A   7       6.895 100.481  37.250  0.00  0.00    -0.273 OA
BRANCH  14  17
ATOM     17  CA  TYR A   8       7.731  97.799  37.459  0.00  0.00    +0.141 C 
BRANCH  17  18
ATOM     18  C   TYR A   8       7.328  96.554  36.751  0.00  0.00    +0.227 C 
ATOM     19  O   TYR A   8       6.472  95.811  37.233  0.00  0.00    -0.286 OA
ENDBRANCH  17  18
BRANCH  17  20
ATOM     20  CB  TYR A   8       8.759  97.503  38.556  0.00  0.00    +0.054 C 
BRANCH  20  21
ATOM     21  CG  TYR A   8       9.371  98.759  39.133  0.00  0.00    -0.020 A 
ATOM     22  CD2 TYR A   8       8.638  99.587  39.971  0.00  0.00    -0.001 A 
ATOM     23  CE2 TYR A   8       9.177 100.717  40.509  0.00  0.00    +0.036 A 
ATOM     24  CZ  TYR A   8      10.486 101.052  40.229  0.00  0.00    +0.134 A 
ATOM     25  CE1 TYR A   8      11.247 100.242  39.407  0.00  0.00    +0.036 A 
ATOM     26  CD1 TYR A   8      10.687  99.101  38.865  0.00  0.00    -0.001 A 
BRANCH  24  27
ATOM     27  OH  TYR A   8      11.025 102.216  40.762  0.00  0.00    -0.506 OA
ATOM     28  HH  TYR A   8      11.813 101.989  41.317  0.00  0.00    +0.292 HD
ENDBRANCH  24  27
ENDBRANCH  20  21
ENDBRANCH  17  20
ENDBRANCH  14  17
ENDBRANCH  12  13
BRANCH  12  29
ATOM     29  CB  TYR A   7       3.672  99.157  37.742  0.00  0.00    +0.055 C 
BRANCH  29  30
ATOM     30  CG  TYR A   7       3.492  99.367  36.261  0.00  0.00    -0.020 A 
ATOM     31  CD2 TYR A   7       2.493 100.216  35.779  0.00  0.00    -0.001 A 
ATOM     32  CE2 TYR A   7       2.331 100.440  34.416  0.00  0.00    +0.036 A 
ATOM     33  CZ  TYR A   7       3.181  99.833  33.505  0.00  0.00    +0.134 A 
ATOM     34  CE1 TYR A   7       4.193  98.989  33.952  0.00  0.00    +0.036 A 
ATOM     35  CD1 TYR A   7       4.350  98.768  35.335  0.00  0.00    -0.001 A 
BRANCH  33  36
ATOM     36  OH  TYR A   7       3.005 100.065  32.156  0.00  0.00    -0.506 OA
ATOM     37  HH  TYR A   7       3.687  99.563  31.644  0.00  0.00    +0.292 HD
ENDBRANCH  33  36
ENDBRANCH  29  30
ENDBRANCH  12  29
ENDBRANCH  10  12
ENDBRANCH   6   8
ENDBRANCH   3   6
ENDBRANCH   1   2
BRANCH   1  39
ATOM     38  C   GLU A   4       5.046 106.329  34.445  0.00  0.00    +0.241 C 
ATOM     39  N   TYR A   5       5.575 105.186  34.848  0.00  0.00    -0.297 N 
ATOM     40  H   TYR A   5       6.541 105.188  35.234  0.00  0.00    +0.150 HD
ATOM     41  O   GLU A   4       3.984 106.385  33.828  0.00  0.00    -0.273 OA
BRANCH  38  42
ATOM     42  CA  GLU A   4       5.832 107.611  34.771  0.00  0.00    +0.149 C 
BRANCH  42  45
ATOM     43  C   ASP A   3       5.695 108.431  37.076  0.00  0.00    +0.241 C 
ATOM     44  O   ASP A   3       4.592 108.937  36.870  0.00  0.00    -0.273 OA
ATOM     45  N   GLU A   4       6.324 107.705  36.156  0.00  0.00    -0.297 N 
ATOM     46  H   GLU A   4       7.187 107.189  36.422  0.00  0.00    +0.150 HD
BRANCH  43  47
ATOM     47  CA  ASP A   3       6.420 108.666  38.420  0.00  0.00    +0.160 C 
BRANCH  47  50
ATOM     48  C   ILE A   2       6.479 106.490  39.521  0.00  0.00    +0.241 C 
ATOM     49  O   ILE A   2       5.272 106.349  39.387  0.00  0.00    -0.273 OA
ATOM     50  N   ASP A   3       7.137 107.532  39.013  0.00  0.00    -0.297 N 
ATOM     51  H   ASP A   3       8.177 107.541  39.038  0.00  0.00    +0.150 HD
BRANCH  48  52
ATOM     52  CA  ILE A   2       7.280 105.390  40.213  0.00  0.00    +0.148 C 
BRANCH  52  54
ATOM     53  C   ASP A   1       8.321 104.186  38.443  0.00  0.00    +0.239 C 
ATOM     54  N   ILE A   2       8.455 105.024  39.454  0.00  0.00    -0.297 N 
ATOM     55  H   ILE A   2       9.387 105.413  39.700  0.00  0.00    +0.150 HD
ATOM     56  O   ASP A   1       7.222 103.795  38.047  0.00  0.00    -0.274 OA
BRANCH  53  57
ATOM     57  CA  ASP A   1       9.603 103.773  37.747  0.00  0.00    +0.156 C 
BRANCH  57  58
ATOM     58  N   ASP A   1       9.319 102.709  36.798  0.00  0.00    -0.238 NA
ATOM     59  H   ASP A   1       8.328 102.511  36.553  0.00  0.00    +0.142 HD
ENDBRANCH  57  58
BRANCH  57  60
ATOM     60  CB  ASP A   1      10.231 104.990  37.055  0.00  0.00    +0.140 C 
BRANCH  60  61
ATOM     61  CG  ASP A   1       9.386 105.506  35.900  0.00  0.00    +0.367 C 
ATOM     62  OD2 ASP A   1       8.157 105.687  36.073  0.00  0.00    -0.246 OA
ATOM     63  OD1 ASP A   1       9.949 105.727  34.809  0.00  0.00    -0.246 OA
ENDBRANCH  60  61
ENDBRANCH  57  60
ENDBRANCH  53  57
ENDBRANCH  52  54
BRANCH  52  64
ATOM     64  CB  ILE A   2       7.685 105.754  41.652  0.00  0.00    +0.027 C 
ATOM     65  CG2 ILE A   2       6.573 106.470  42.372  0.00  0.00    +0.002 C 
BRANCH  64  66
ATOM     66  CG1 ILE A   2       8.004 104.428  42.368  0.00  0.00    +0.002 C 
ATOM     67  CD1 ILE A   2       8.548 104.573  43.719  0.00  0.00    +0.000 C 
ENDBRANCH  64  66
ENDBRANCH  52  64
ENDBRANCH  48  52
ENDBRANCH  47  50
BRANCH  47  68
ATOM     68  CB  ASP A   3       7.379 109.840  38.225  0.00  0.00    +0.143 C 
BRANCH  68  69
ATOM     69  CG  ASP A   3       6.675 111.073  37.724  0.00  0.00    +0.367 C 
ATOM     70  OD2 ASP A   3       5.646 111.458  38.322  0.00  0.00    -0.246 OA
ATOM     71  OD1 ASP A   3       7.138 111.648  36.721  0.00  0.00    -0.246 OA
ENDBRANCH  68  69
ENDBRANCH  47  68
ENDBRANCH  43  47
ENDBRANCH  42  45
BRANCH  42  72
ATOM     72  CB  GLU A   4       7.008 107.750  33.812  0.00  0.00    +0.041 C 
BRANCH  72  73
ATOM     73  CG  GLU A   4       7.745 109.067  33.987  0.00  0.00    +0.116 C 
BRANCH  73  74
ATOM     74  CD  GLU A   4       8.859 109.250  32.981  0.00  0.00    +0.365 C 
ATOM     75  OE2 GLU A   4       9.475 108.232  32.587  0.00  0.00    -0.246 OA
ATOM     76  OE1 GLU A   4       9.108 110.407  32.577  0.00  0.00    -0.246 OA
ENDBRANCH  73  74
ENDBRANCH  72  73
ENDBRANCH  42  72
ENDBRANCH  38  42
ENDBRANCH   1  39
BRANCH   1  77
ATOM     77  CB  TYR A   5       5.832 102.748  34.654  0.00  0.00    +0.055 C 
BRANCH  77  78
ATOM     78  CG  TYR A   5       6.522 102.672  33.314  0.00  0.00    -0.020 A 
ATOM     79  CD2 TYR A   5       7.758 103.274  33.112  0.00  0.00    -0.001 A 
ATOM     80  CE2 TYR A   5       8.387 103.207  31.881  0.00  0.00    +0.036 A 
ATOM     81  CZ  TYR A   5       7.773 102.538  30.833  0.00  0.00    +0.134 A 
ATOM     82  CE1 TYR A   5       6.543 101.943  31.008  0.00  0.00    +0.036 A 
ATOM     83  CD1 TYR A   5       5.925 102.009  32.241  0.00  0.00    -0.001 A 
BRANCH  81  84
ATOM     84  OH  TYR A   5       8.395 102.468  29.608  0.00  0.00    -0.506 OA
ATOM     85  HH  TYR A   5       7.825 101.959  28.978  0.00  0.00    +0.292 HD
ENDBRANCH  81  84
ENDBRANCH  77  78
ENDBRANCH   1  77
TORSDOF 34
REMARK  Name = ../refined-set-2016/4zl4/4zl4_pocket.pdb
REMARK  272 active torsions:
REMARK  status: ('A' for Active; 'I' for Inactive)
REMARK    1  A    between atoms: _1  and  _3
REMARK    2  A    between atoms: _3  and  _4
REMARK    3  A    between atoms: _3  and  _6
REMARK    4  A    between atoms: _6  and  _7
REMARK    5  A    between atoms: _10  and  _12
REMARK    6  A    between atoms: _12  and  _13
REMARK    7  A    between atoms: _12  and  _15
REMARK    8  A    between atoms: _15  and  _16
REMARK    9  A    between atoms: _19  and  _21
REMARK   10  A    between atoms: _21  and  _22
REMARK   11  A    between atoms: _21  and  _24
REMARK   12  A    between atoms: _24  and  _25
REMARK   13  A    between atoms: _28  and  _30
REMARK   14  A    between atoms: _30  and  _31
REMARK   15  A    between atoms: _30  and  _33
REMARK   16  A    between atoms: _33  and  _34
REMARK   17  A    between atoms: _34  and  _35
REMARK   18  A    between atoms: _38  and  _40
REMARK   19  A    between atoms: _40  and  _41
REMARK   20  A    between atoms: _40  and  _43
REMARK   21  A    between atoms: _43  and  _44
REMARK   22  A    between atoms: _49  and  _50
REMARK   23  A    between atoms: _52  and  _54
REMARK   24  A    between atoms: _54  and  _55
REMARK   25  A    between atoms: _58  and  _60
REMARK   26  A    between atoms: _60  and  _61
REMARK   27  A    between atoms: _60  and  _63
REMARK   28  A    between atoms: _63  and  _64
REMARK   29  A    between atoms: _69  and  _70
REMARK   30  A    between atoms: _72  and  _74
REMARK   31  A    between atoms: _74  and  _75
REMARK   32  A    between atoms: _74  and  _77
REMARK   33  A    between atoms: _77  and  _78
REMARK   34  A    between atoms: _83  and  _84
REMARK   35  A    between atoms: _86  and  _88
REMARK   36  A    between atoms: _88  and  _89
REMARK   37  A    between atoms: _88  and  _91
REMARK   38  A    between atoms: _91  and  _92
REMARK   39  A    between atoms: _95  and  _97
REMARK   40  A    between atoms: _97  and  _98
REMARK   41  A    between atoms: _97  and  _100
REMARK   42  A    between atoms: _100  and  _101
REMARK   43  A    between atoms: _104  and  _106
REMARK   44  A    between atoms: _106  and  _107
REMARK   45  A    between atoms: _106  and  _109
REMARK   46  A    between atoms: _109  and  _110
REMARK   47  A    between atoms: _113  and  _115
REMARK   48  A    between atoms: _115  and  _116
REMARK   49  A    between atoms: _115  and  _118
REMARK   50  A    between atoms: _118  and  _119
REMARK   51  A    between atoms: _122  and  _124
REMARK   52  A    between atoms: _124  and  _125
REMARK   53  A    between atoms: _127  and  _129
REMARK   54  A    between atoms: _129  and  _130
REMARK   55  A    between atoms: _129  and  _132
REMARK   56  A    between atoms: _132  and  _133
REMARK   57  A    between atoms: _135  and  _137
REMARK   58  A    between atoms: _137  and  _138
REMARK   59  A    between atoms: _137  and  _140
REMARK   60  A    between atoms: _140  and  _141
REMARK   61  A    between atoms: _143  and  _145
REMARK   62  A    between atoms: _145  and  _146
REMARK   63  A    between atoms: _145  and  _148
REMARK   64  A    between atoms: _148  and  _149
REMARK   65  A    between atoms: _151  and  _153
REMARK   66  A    between atoms: _153  and  _154
REMARK   67  A    between atoms: _153  and  _156
REMARK   68  A    between atoms: _156  and  _157
REMARK   69  A    between atoms: _162  and  _164
REMARK   70  A    between atoms: _164  and  _165
REMARK   71  A    between atoms: _164  and  _167
REMARK   72  A    between atoms: _167  and  _168
REMARK   73  A    between atoms: _168  and  _169
REMARK   74  A    between atoms: _174  and  _176
REMARK   75  A    between atoms: _176  and  _177
REMARK   76  A    between atoms: _176  and  _179
REMARK   77  A    between atoms: _179  and  _180
REMARK   78  A    between atoms: _182  and  _184
REMARK   79  A    between atoms: _184  and  _185
REMARK   80  A    between atoms: _184  and  _187
REMARK   81  A    between atoms: _187  and  _188
REMARK   82  A    between atoms: _193  and  _194
REMARK   83  A    between atoms: _196  and  _198
REMARK   84  A    between atoms: _198  and  _199
REMARK   85  A    between atoms: _198  and  _201
REMARK   86  A    between atoms: _203  and  _205
REMARK   87  A    between atoms: _205  and  _206
REMARK   88  A    between atoms: _205  and  _208
REMARK   89  A    between atoms: _208  and  _209
REMARK   90  A    between atoms: _209  and  _210
REMARK   91  A    between atoms: _213  and  _215
REMARK   92  A    between atoms: _215  and  _216
REMARK   93  A    between atoms: _218  and  _220
REMARK   94  A    between atoms: _220  and  _221
REMARK   95  A    between atoms: _220  and  _223
REMARK   96  A    between atoms: _223  and  _224
REMARK   97  A    between atoms: _226  and  _228
REMARK   98  A    between atoms: _228  and  _229
REMARK   99  A    between atoms: _228  and  _231
REMARK  100  A    between atoms: _231  and  _232
REMARK  101  A    between atoms: _235  and  _237
REMARK  102  A    between atoms: _237  and  _238
REMARK  103  A    between atoms: _237  and  _240
REMARK  104  A    between atoms: _240  and  _241
REMARK  105  A    between atoms: _241  and  _242
REMARK  106  A    between atoms: _245  and  _247
REMARK  107  A    between atoms: _247  and  _248
REMARK  108  A    between atoms: _247  and  _250
REMARK  109  A    between atoms: _250  and  _251
REMARK  110  A    between atoms: _253  and  _255
REMARK  111  A    between atoms: _255  and  _256
REMARK  112  A    between atoms: _255  and  _258
REMARK  113  A    between atoms: _258  and  _259
REMARK  114  A    between atoms: _262  and  _264
REMARK  115  A    between atoms: _264  and  _265
REMARK  116  A    between atoms: _264  and  _267
REMARK  117  A    between atoms: _267  and  _268
REMARK  118  A    between atoms: _274  and  _276
REMARK  119  A    between atoms: _276  and  _277
REMARK  120  A    between atoms: _276  and  _279
REMARK  121  A    between atoms: _279  and  _280
REMARK  122  A    between atoms: _283  and  _285
REMARK  123  A    between atoms: _285  and  _286
REMARK  124  A    between atoms: _285  and  _288
REMARK  125  A    between atoms: _288  and  _289
REMARK  126  A    between atoms: _294  and  _295
REMARK  127  A    between atoms: _297  and  _299
REMARK  128  A    between atoms: _299  and  _300
REMARK  129  A    between atoms: _299  and  _302
REMARK  130  A    between atoms: _302  and  _303
REMARK  131  A    between atoms: _303  and  _304
REMARK  132  A    between atoms: _309  and  _311
REMARK  133  A    between atoms: _311  and  _312
REMARK  134  A    between atoms: _311  and  _314
REMARK  135  A    between atoms: _314  and  _315
REMARK  136  A    between atoms: _315  and  _316
REMARK  137  A    between atoms: _321  and  _323
REMARK  138  A    between atoms: _323  and  _324
REMARK  139  A    between atoms: _327  and  _329
REMARK  140  A    between atoms: _329  and  _330
REMARK  141  A    between atoms: _332  and  _334
REMARK  142  A    between atoms: _334  and  _335
REMARK  143  A    between atoms: _334  and  _337
REMARK  144  A    between atoms: _340  and  _342
REMARK  145  A    between atoms: _342  and  _343
REMARK  146  A    between atoms: _342  and  _345
REMARK  147  A    between atoms: _345  and  _346
REMARK  148  A    between atoms: _349  and  _351
REMARK  149  A    between atoms: _351  and  _352
REMARK  150  A    between atoms: _354  and  _356
REMARK  151  A    between atoms: _356  and  _357
REMARK  152  A    between atoms: _356  and  _359
REMARK  153  A    between atoms: _359  and  _360
REMARK  154  A    between atoms: _360  and  _361
REMARK  155  A    between atoms: _363  and  _365
REMARK  156  A    between atoms: _365  and  _366
REMARK  157  A    between atoms: _365  and  _368
REMARK  158  A    between atoms: _368  and  _369
REMARK  159  A    between atoms: _371  and  _373
REMARK  160  A    between atoms: _373  and  _374
REMARK  161  A    between atoms: _373  and  _376
REMARK  162  A    between atoms: _376  and  _377
REMARK  163  A    between atoms: _377  and  _378
REMARK  164  A    between atoms: _378  and  _379
REMARK  165  A    between atoms: _379  and  _380
REMARK  166  A    between atoms: _384  and  _386
REMARK  167  A    between atoms: _386  and  _387
REMARK  168  A    between atoms: _386  and  _389
REMARK  169  A    between atoms: _389  and  _390
REMARK  170  A    between atoms: _390  and  _391
REMARK  171  A    between atoms: _391  and  _392
REMARK  172  A    between atoms: _401  and  _403
REMARK  173  A    between atoms: _403  and  _404
REMARK  174  A    between atoms: _403  and  _406
REMARK  175  A    between atoms: _406  and  _407
REMARK  176  A    between atoms: _412  and  _413
REMARK  177  A    between atoms: _415  and  _417
REMARK  178  A    between atoms: _417  and  _418
REMARK  179  A    between atoms: _417  and  _420
REMARK  180  A    between atoms: _420  and  _421
REMARK  181  A    between atoms: _426  and  _427
REMARK  182  A    between atoms: _429  and  _431
REMARK  183  A    between atoms: _431  and  _432
REMARK  184  A    between atoms: _431  and  _434
REMARK  185  A    between atoms: _434  and  _435
REMARK  186  A    between atoms: _440  and  _441
REMARK  187  A    between atoms: _443  and  _445
REMARK  188  A    between atoms: _445  and  _446
REMARK  189  A    between atoms: _445  and  _448
REMARK  190  A    between atoms: _448  and  _449
REMARK  191  A    between atoms: _452  and  _454
REMARK  192  A    between atoms: _454  and  _455
REMARK  193  A    between atoms: _454  and  _457
REMARK  194  A    between atoms: _460  and  _462
REMARK  195  A    between atoms: _462  and  _463
REMARK  196  A    between atoms: _462  and  _465
REMARK  197  A    between atoms: _465  and  _466
REMARK  198  A    between atoms: _469  and  _471
REMARK  199  A    between atoms: _471  and  _472
REMARK  200  A    between atoms: _471  and  _474
REMARK  201  A    between atoms: _474  and  _475
REMARK  202  A    between atoms: _477  and  _479
REMARK  203  A    between atoms: _479  and  _480
REMARK  204  A    between atoms: _482  and  _484
REMARK  205  A    between atoms: _484  and  _485
REMARK  206  A    between atoms: _484  and  _487
REMARK  207  A    between atoms: _487  and  _488
REMARK  208  A    between atoms: _490  and  _492
REMARK  209  A    between atoms: _492  and  _493
REMARK  210  A    between atoms: _492  and  _495
REMARK  211  A    between atoms: _495  and  _496
REMARK  212  A    between atoms: _499  and  _501
REMARK  213  A    between atoms: _501  and  _502
REMARK  214  A    between atoms: _501  and  _504
REMARK  215  A    between atoms: _504  and  _505
REMARK  216  A    between atoms: _511  and  _513
REMARK  217  A    between atoms: _513  and  _514
REMARK  218  A    between atoms: _513  and  _516
REMARK  219  A    between atoms: _516  and  _517
REMARK  220  A    between atoms: _520  and  _522
REMARK  221  A    between atoms: _522  and  _523
REMARK  222  A    between atoms: _522  and  _525
REMARK  223  A    between atoms: _525  and  _526
REMARK  224  A    between atoms: _531  and  _533
REMARK  225  A    between atoms: _533  and  _534
REMARK  226  A    between atoms: _533  and  _536
REMARK  227  A    between atoms: _536  and  _537
REMARK  228  A    between atoms: _542  and  _543
REMARK  229  A    between atoms: _545  and  _547
REMARK  230  A    between atoms: _547  and  _548
REMARK  231  A    between atoms: _547  and  _550
REMARK  232  A    between atoms: _550  and  _551
REMARK  233  A    between atoms: _551  and  _552
REMARK  234  A    between atoms: _552  and  _553
REMARK  235  A    between atoms: _553  and  _554
REMARK  236  A    between atoms: _558  and  _560
REMARK  237  A    between atoms: _560  and  _561
REMARK  238  A    between atoms: _560  and  _563
REMARK  239  A    between atoms: _563  and  _564
REMARK  240  A    between atoms: _564  and  _565
REMARK  241  A    between atoms: _568  and  _570
REMARK  242  A    between atoms: _570  and  _571
REMARK  243  A    between atoms: _570  and  _573
REMARK  244  A    between atoms: _573  and  _574
REMARK  245  A    between atoms: _574  and  _575
REMARK  246  A    between atoms: _575  and  _576
REMARK  247  A    between atoms: _576  and  _577
REMARK  248  A    between atoms: _581  and  _583
REMARK  249  A    between atoms: _583  and  _584
REMARK  250  A    between atoms: _583  and  _586
REMARK  251  A    between atoms: _589  and  _591
REMARK  252  A    between atoms: _591  and  _592
REMARK  253  A    between atoms: _591  and  _594
REMARK  254  A    between atoms: _594  and  _595
REMARK  255  A    between atoms: _600  and  _602
REMARK  256  A    between atoms: _602  and  _603
REMARK  257  A    between atoms: _602  and  _605
REMARK  258  A    between atoms: _605  and  _606
REMARK  259  A    between atoms: _606  and  _607
REMARK  260  A    between atoms: _607  and  _608
REMARK  261  A    between atoms: _608  and  _609
REMARK  262  A    between atoms: _614  and  _615
REMARK  263  A    between atoms: _620  and  _622
REMARK  264  A    between atoms: _622  and  _623
REMARK  265  A    between atoms: _622  and  _625
REMARK  266  A    between atoms: _625  and  _626
REMARK  267  A    between atoms: _629  and  _631
REMARK  268  A    between atoms: _631  and  _632
REMARK  269  A    between atoms: _634  and  _636
REMARK  270  A    between atoms: _636  and  _637
REMARK  271  A    between atoms: _636  and  _639
REMARK  272  A    between atoms: _639  and  _640
REMARK                            x       y       z     vdW  Elec       q    Type
REMARK                         _______ _______ _______ _____ _____    ______ ____
ROOT
ATOM      1  CA  THR A   4       3.188  90.460  44.772  0.00  0.00    +0.176 C 
ENDROOT
BRANCH   1   3
ATOM      2  C   ASP A   3       2.545  91.149  42.573  0.00  0.00    +0.241 C 
ATOM      3  N   THR A   4       3.220  91.411  43.680  0.00  0.00    -0.295 N 
ATOM      4  H   THR A   4       3.768  92.291  43.765  0.00  0.00    +0.150 HD
ATOM      5  O   ASP A   3       1.800  90.166  42.477  0.00  0.00    -0.273 OA
BRANCH   2   6
ATOM      6  CA  ASP A   3       2.643  92.182  41.458  0.00  0.00    +0.160 C 
BRANCH   6   9
ATOM      7  C   LEU A   2       4.501  92.817  40.017  0.00  0.00    +0.241 C 
ATOM      8  O   LEU A   2       4.667  93.887  40.624  0.00  0.00    -0.273 OA
ATOM      9  N   ASP A   3       3.629  91.887  40.410  0.00  0.00    -0.297 N 
ATOM     10  H   ASP A   3       3.648  90.945  39.970  0.00  0.00    +0.150 HD
BRANCH   7  11
ATOM     11  CA  LEU A   2       5.273  92.528  38.749  0.00  0.00    +0.149 C 
BRANCH  11  13
ATOM     12  C   ILE A   1       3.697  93.203  37.043  0.00  0.00    +0.238 C 
ATOM     13  N   LEU A   2       4.810  93.450  37.730  0.00  0.00    -0.297 N 
ATOM     14  H   LEU A   2       5.354  94.314  37.534  0.00  0.00    +0.150 HD
ATOM     15  O   ILE A   1       2.966  92.246  37.286  0.00  0.00    -0.274 OA
BRANCH  12  16
ATOM     16  CA  ILE A   1       3.339  94.187  35.934  0.00  0.00    +0.145 C 
BRANCH  16  17
ATOM     17  N   ILE A   1       3.120  93.476  34.688  0.00  0.00    -0.238 NA
ATOM     18  H   ILE A   1       2.166  93.457  34.274  0.00  0.00    +0.142 HD
ENDBRANCH  16  17
BRANCH  16  19
ATOM     19  CB  ILE A   1       2.093  95.000  36.339  0.00  0.00    +0.025 C 
ATOM     20  CG2 ILE A   1       2.317  95.688  37.688  0.00  0.00    +0.002 C 
BRANCH  19  21
ATOM     21  CG1 ILE A   1       1.774  96.023  35.247  0.00  0.00    +0.002 C 
ATOM     22  CD1 ILE A   1       0.596  96.941  35.586  0.00  0.00    +0.000 C 
ENDBRANCH  19  21
ENDBRANCH  16  19
ENDBRANCH  12  16
ENDBRANCH  11  13
BRANCH  11  23
ATOM     23  CB  LEU A   2       6.774  92.664  38.957  0.00  0.00    +0.029 C 
BRANCH  23  24
ATOM     24  CG  LEU A   2       7.348  91.631  39.928  0.00  0.00    +0.002 C 
ATOM     25  CD2 LEU A   2       8.715  92.043  40.428  0.00  0.00    +0.000 C 
ATOM     26  CD1 LEU A   2       7.373  90.236  39.308  0.00  0.00    +0.000 C 
ENDBRANCH  23  24
ENDBRANCH  11  23
ENDBRANCH   7  11
ENDBRANCH   6   9
BRANCH   6  27
ATOM     27  CB  ASP A   3       1.261  92.357  40.827  0.00  0.00    +0.143 C 
BRANCH  27  28
ATOM     28  CG  ASP A   3       0.207  92.674  41.841  0.00  0.00    +0.367 C 
ATOM     29  OD2 ASP A   3       0.552  93.213  42.906  0.00  0.00    -0.246 OA
ATOM     30  OD1 ASP A   3      -0.975  92.368  41.593  0.00  0.00    -0.246 OA
ENDBRANCH  27  28
ENDBRANCH   6  27
ENDBRANCH   2   6
ENDBRANCH   1   3
BRANCH   1  31
ATOM     31  C   THR A   4       1.867  90.556  45.547  0.00  0.00    +0.243 C 
ATOM     32  O   THR A   4       1.681  89.870  46.540  0.00  0.00    -0.273 OA
ATOM     33  N   GLY A   5       0.950  91.399  45.076  0.00  0.00    -0.295 N 
ATOM     34  H   GLY A   5       1.162  91.939  44.213  0.00  0.00    +0.150 HD
BRANCH  33  35
ATOM     35  CA  GLY A   5      -0.338  91.591  45.726  0.00  0.00    +0.176 C 
BRANCH  35  36
ATOM     36  C   GLY A   5      -1.523  90.913  45.049  0.00  0.00    +0.243 C 
ATOM     37  O   GLY A   5      -2.662  91.089  45.495  0.00  0.00    -0.273 OA
ATOM     38  N   SER A   6      -1.264  90.114  44.007  0.00  0.00    -0.295 N 
ATOM     39  H   SER A   6      -0.299  90.075  43.621  0.00  0.00    +0.150 HD
BRANCH  38  40
ATOM     40  CA  SER A   6      -2.316  89.293  43.399  0.00  0.00    +0.178 C 
BRANCH  40  41
ATOM     41  C   SER A   6      -1.787  87.921  42.975  0.00  0.00    +0.243 C 
ATOM     42  O   SER A   6      -0.590  87.686  43.030  0.00  0.00    -0.273 OA
ATOM     43  N   SER A   7      -2.673  87.022  42.542  0.00  0.00    -0.295 N 
ATOM     44  H   SER A   7      -3.649  87.314  42.333  0.00  0.00    +0.150 HD
BRANCH  43  45
ATOM     45  CA  SER A   7      -2.270  85.617  42.359  0.00  0.00    +0.178 C 
BRANCH  45  46
ATOM     46  C   SER A   7      -2.279  85.149  40.908  0.00  0.00    +0.243 C 
ATOM     47  O   SER A   7      -1.721  84.108  40.594  0.00  0.00    -0.273 OA
ATOM     48  N   SER A   8      -2.861  85.946  40.020  0.00  0.00    -0.296 N 
ATOM     49  H   SER A   8      -3.170  86.895  40.311  0.00  0.00    +0.150 HD
BRANCH  48  50
ATOM     50  CA  SER A   8      -3.074  85.517  38.650  0.00  0.00    +0.166 C 
BRANCH  50  51
ATOM     51  C   SER A   8      -1.948  85.880  37.713  0.00  0.00    +0.229 C 
ATOM     52  O   SER A   8      -1.059  86.644  38.051  0.00  0.00    -0.286 OA
ENDBRANCH  50  51
BRANCH  50  53
ATOM     53  CB  SER A   8      -4.378  86.107  38.104  0.00  0.00    +0.165 C 
BRANCH  53  54
ATOM     54  OG  SER A   8      -5.497  85.602  38.810  0.00  0.00    -0.380 OA
ATOM     55  H   SER A   8      -5.529  84.617  38.715  0.00  0.00    +0.211 HD
ENDBRANCH  53  54
ENDBRANCH  50  53
ENDBRANCH  48  50
ENDBRANCH  45  46
BRANCH  45  56
ATOM     56  CB  SER A   7      -3.168  84.690  43.185  0.00  0.00    +0.166 C 
BRANCH  56  57
ATOM     57  OG  SER A   7      -4.471  84.563  42.614  0.00  0.00    -0.380 OA
ATOM     58  H   SER A   7      -4.395  84.189  41.701  0.00  0.00    +0.211 HD
ENDBRANCH  56  57
ENDBRANCH  45  56
ENDBRANCH  43  45
ENDBRANCH  40  41
BRANCH  40  59
ATOM     59  CB  SER A   6      -2.930  90.005  42.196  0.00  0.00    +0.166 C 
BRANCH  59  60
ATOM     60  OG  SER A   6      -2.062  89.948  41.074  0.00  0.00    -0.380 OA
ATOM     61  H   SER A   6      -2.482  90.416  40.309  0.00  0.00    +0.211 HD
ENDBRANCH  59  60
ENDBRANCH  40  59
ENDBRANCH  38  40
ENDBRANCH  35  36
ENDBRANCH  33  35
ENDBRANCH   1  31
BRANCH   1  62
ATOM     62  CB  THR A   4       4.399  90.655  45.715  0.00  0.00    +0.137 C 
ATOM     63  CG2 THR A   4       5.710  90.481  44.934  0.00  0.00    +0.034 C 
BRANCH  62  64
ATOM     64  OG1 THR A   4       4.353  91.953  46.313  0.00  0.00    -0.382 OA
ATOM     65  HG1 THR A   4       3.517  92.045  46.834  0.00  0.00    +0.210 HD
ENDBRANCH  62  64
ENDBRANCH   1  62
TORSDOF 30
REMARK  Name = ../refined-set-2016/4zl4/4zl4_pocket.pdb
REMARK  272 active torsions:
REMARK  status: ('A' for Active; 'I' for Inactive)
REMARK    1  A    between atoms: _1  and  _3
REMARK    2  A    between atoms: _3  and  _4
REMARK    3  A    between atoms: _3  and  _6
REMARK    4  A    between atoms: _6  and  _7
REMARK    5  A    between atoms: _10  and  _12
REMARK    6  A    between atoms: _12  and  _13
REMARK    7  A    between atoms: _12  and  _15
REMARK    8  A    between atoms: _15  and  _16
REMARK    9  A    between atoms: _19  and  _21
REMARK   10  A    between atoms: _21  and  _22
REMARK   11  A    between atoms: _21  and  _24
REMARK   12  A    between atoms: _24  and  _25
REMARK   13  A    between atoms: _28  and  _30
REMARK   14  A    between atoms: _30  and  _31
REMARK   15  A    between atoms: _30  and  _33
REMARK   16  A    between atoms: _33  and  _34
REMARK   17  A    between atoms: _34  and  _35
REMARK   18  A    between atoms: _38  and  _40
REMARK   19  A    between atoms: _40  and  _41
REMARK   20  A    between atoms: _40  and  _43
REMARK   21  A    between atoms: _43  and  _44
REMARK   22  A    between atoms: _49  and  _50
REMARK   23  A    between atoms: _52  and  _54
REMARK   24  A    between atoms: _54  and  _55
REMARK   25  A    between atoms: _58  and  _60
REMARK   26  A    between atoms: _60  and  _61
REMARK   27  A    between atoms: _60  and  _63
REMARK   28  A    between atoms: _63  and  _64
REMARK   29  A    between atoms: _69  and  _70
REMARK   30  A    between atoms: _72  and  _74
REMARK   31  A    between atoms: _74  and  _75
REMARK   32  A    between atoms: _74  and  _77
REMARK   33  A    between atoms: _77  and  _78
REMARK   34  A    between atoms: _83  and  _84
REMARK   35  A    between atoms: _86  and  _88
REMARK   36  A    between atoms: _88  and  _89
REMARK   37  A    between atoms: _88  and  _91
REMARK   38  A    between atoms: _91  and  _92
REMARK   39  A    between atoms: _95  and  _97
REMARK   40  A    between atoms: _97  and  _98
REMARK   41  A    between atoms: _97  and  _100
REMARK   42  A    between atoms: _100  and  _101
REMARK   43  A    between atoms: _104  and  _106
REMARK   44  A    between atoms: _106  and  _107
REMARK   45  A    between atoms: _106  and  _109
REMARK   46  A    between atoms: _109  and  _110
REMARK   47  A    between atoms: _113  and  _115
REMARK   48  A    between atoms: _115  and  _116
REMARK   49  A    between atoms: _115  and  _118
REMARK   50  A    between atoms: _118  and  _119
REMARK   51  A    between atoms: _122  and  _124
REMARK   52  A    between atoms: _124  and  _125
REMARK   53  A    between atoms: _127  and  _129
REMARK   54  A    between atoms: _129  and  _130
REMARK   55  A    between atoms: _129  and  _132
REMARK   56  A    between atoms: _132  and  _133
REMARK   57  A    between atoms: _135  and  _137
REMARK   58  A    between atoms: _137  and  _138
REMARK   59  A    between atoms: _137  and  _140
REMARK   60  A    between atoms: _140  and  _141
REMARK   61  A    between atoms: _143  and  _145
REMARK   62  A    between atoms: _145  and  _146
REMARK   63  A    between atoms: _145  and  _148
REMARK   64  A    between atoms: _148  and  _149
REMARK   65  A    between atoms: _151  and  _153
REMARK   66  A    between atoms: _153  and  _154
REMARK   67  A    between atoms: _153  and  _156
REMARK   68  A    between atoms: _156  and  _157
REMARK   69  A    between atoms: _162  and  _164
REMARK   70  A    between atoms: _164  and  _165
REMARK   71  A    between atoms: _164  and  _167
REMARK   72  A    between atoms: _167  and  _168
REMARK   73  A    between atoms: _168  and  _169
REMARK   74  A    between atoms: _174  and  _176
REMARK   75  A    between atoms: _176  and  _177
REMARK   76  A    between atoms: _176  and  _179
REMARK   77  A    between atoms: _179  and  _180
REMARK   78  A    between atoms: _182  and  _184
REMARK   79  A    between atoms: _184  and  _185
REMARK   80  A    between atoms: _184  and  _187
REMARK   81  A    between atoms: _187  and  _188
REMARK   82  A    between atoms: _193  and  _194
REMARK   83  A    between atoms: _196  and  _198
REMARK   84  A    between atoms: _198  and  _199
REMARK   85  A    between atoms: _198  and  _201
REMARK   86  A    between atoms: _203  and  _205
REMARK   87  A    between atoms: _205  and  _206
REMARK   88  A    between atoms: _205  and  _208
REMARK   89  A    between atoms: _208  and  _209
REMARK   90  A    between atoms: _209  and  _210
REMARK   91  A    between atoms: _213  and  _215
REMARK   92  A    between atoms: _215  and  _216
REMARK   93  A    between atoms: _218  and  _220
REMARK   94  A    between atoms: _220  and  _221
REMARK   95  A    between atoms: _220  and  _223
REMARK   96  A    between atoms: _223  and  _224
REMARK   97  A    between atoms: _226  and  _228
REMARK   98  A    between atoms: _228  and  _229
REMARK   99  A    between atoms: _228  and  _231
REMARK  100  A    between atoms: _231  and  _232
REMARK  101  A    between atoms: _235  and  _237
REMARK  102  A    between atoms: _237  and  _238
REMARK  103  A    between atoms: _237  and  _240
REMARK  104  A    between atoms: _240  and  _241
REMARK  105  A    between atoms: _241  and  _242
REMARK  106  A    between atoms: _245  and  _247
REMARK  107  A    between atoms: _247  and  _248
REMARK  108  A    between atoms: _247  and  _250
REMARK  109  A    between atoms: _250  and  _251
REMARK  110  A    between atoms: _253  and  _255
REMARK  111  A    between atoms: _255  and  _256
REMARK  112  A    between atoms: _255  and  _258
REMARK  113  A    between atoms: _258  and  _259
REMARK  114  A    between atoms: _262  and  _264
REMARK  115  A    between atoms: _264  and  _265
REMARK  116  A    between atoms: _264  and  _267
REMARK  117  A    between atoms: _267  and  _268
REMARK  118  A    between atoms: _274  and  _276
REMARK  119  A    between atoms: _276  and  _277
REMARK  120  A    between atoms: _276  and  _279
REMARK  121  A    between atoms: _279  and  _280
REMARK  122  A    between atoms: _283  and  _285
REMARK  123  A    between atoms: _285  and  _286
REMARK  124  A    between atoms: _285  and  _288
REMARK  125  A    between atoms: _288  and  _289
REMARK  126  A    between atoms: _294  and  _295
REMARK  127  A    between atoms: _297  and  _299
REMARK  128  A    between atoms: _299  and  _300
REMARK  129  A    between atoms: _299  and  _302
REMARK  130  A    between atoms: _302  and  _303
REMARK  131  A    between atoms: _303  and  _304
REMARK  132  A    between atoms: _309  and  _311
REMARK  133  A    between atoms: _311  and  _312
REMARK  134  A    between atoms: _311  and  _314
REMARK  135  A    between atoms: _314  and  _315
REMARK  136  A    between atoms: _315  and  _316
REMARK  137  A    between atoms: _321  and  _323
REMARK  138  A    between atoms: _323  and  _324
REMARK  139  A    between atoms: _327  and  _329
REMARK  140  A    between atoms: _329  and  _330
REMARK  141  A    between atoms: _332  and  _334
REMARK  142  A    between atoms: _334  and  _335
REMARK  143  A    between atoms: _334  and  _337
REMARK  144  A    between atoms: _340  and  _342
REMARK  145  A    between atoms: _342  and  _343
REMARK  146  A    between atoms: _342  and  _345
REMARK  147  A    between atoms: _345  and  _346
REMARK  148  A    between atoms: _349  and  _351
REMARK  149  A    between atoms: _351  and  _352
REMARK  150  A    between atoms: _354  and  _356
REMARK  151  A    between atoms: _356  and  _357
REMARK  152  A    between atoms: _356  and  _359
REMARK  153  A    between atoms: _359  and  _360
REMARK  154  A    between atoms: _360  and  _361
REMARK  155  A    between atoms: _363  and  _365
REMARK  156  A    between atoms: _365  and  _366
REMARK  157  A    between atoms: _365  and  _368
REMARK  158  A    between atoms: _368  and  _369
REMARK  159  A    between atoms: _371  and  _373
REMARK  160  A    between atoms: _373  and  _374
REMARK  161  A    between atoms: _373  and  _376
REMARK  162  A    between atoms: _376  and  _377
REMARK  163  A    between atoms: _377  and  _378
REMARK  164  A    between atoms: _378  and  _379
REMARK  165  A    between atoms: _379  and  _380
REMARK  166  A    between atoms: _384  and  _386
REMARK  167  A    between atoms: _386  and  _387
REMARK  168  A    between atoms: _386  and  _389
REMARK  169  A    between atoms: _389  and  _390
REMARK  170  A    between atoms: _390  and  _391
REMARK  171  A    between atoms: _391  and  _392
REMARK  172  A    between atoms: _401  and  _403
REMARK  173  A    between atoms: _403  and  _404
REMARK  174  A    between atoms: _403  and  _406
REMARK  175  A    between atoms: _406  and  _407
REMARK  176  A    between atoms: _412  and  _413
REMARK  177  A    between atoms: _415  and  _417
REMARK  178  A    between atoms: _417  and  _418
REMARK  179  A    between atoms: _417  and  _420
REMARK  180  A    between atoms: _420  and  _421
REMARK  181  A    between atoms: _426  and  _427
REMARK  182  A    between atoms: _429  and  _431
REMARK  183  A    between atoms: _431  and  _432
REMARK  184  A    between atoms: _431  and  _434
REMARK  185  A    between atoms: _434  and  _435
REMARK  186  A    between atoms: _440  and  _441
REMARK  187  A    between atoms: _443  and  _445
REMARK  188  A    between atoms: _445  and  _446
REMARK  189  A    between atoms: _445  and  _448
REMARK  190  A    between atoms: _448  and  _449
REMARK  191  A    between atoms: _452  and  _454
REMARK  192  A    between atoms: _454  and  _455
REMARK  193  A    between atoms: _454  and  _457
REMARK  194  A    between atoms: _460  and  _462
REMARK  195  A    between atoms: _462  and  _463
REMARK  196  A    between atoms: _462  and  _465
REMARK  197  A    between atoms: _465  and  _466
REMARK  198  A    between atoms: _469  and  _471
REMARK  199  A    between atoms: _471  and  _472
REMARK  200  A    between atoms: _471  and  _474
REMARK  201  A    between atoms: _474  and  _475
REMARK  202  A    between atoms: _477  and  _479
REMARK  203  A    between atoms: _479  and  _480
REMARK  204  A    between atoms: _482  and  _484
REMARK  205  A    between atoms: _484  and  _485
REMARK  206  A    between atoms: _484  and  _487
REMARK  207  A    between atoms: _487  and  _488
REMARK  208  A    between atoms: _490  and  _492
REMARK  209  A    between atoms: _492  and  _493
REMARK  210  A    between atoms: _492  and  _495
REMARK  211  A    between atoms: _495  and  _496
REMARK  212  A    between atoms: _499  and  _501
REMARK  213  A    between atoms: _501  and  _502
REMARK  214  A    between atoms: _501  and  _504
REMARK  215  A    between atoms: _504  and  _505
REMARK  216  A    between atoms: _511  and  _513
REMARK  217  A    between atoms: _513  and  _514
REMARK  218  A    between atoms: _513  and  _516
REMARK  219  A    between atoms: _516  and  _517
REMARK  220  A    between atoms: _520  and  _522
REMARK  221  A    between atoms: _522  and  _523
REMARK  222  A    between atoms: _522  and  _525
REMARK  223  A    between atoms: _525  and  _526
REMARK  224  A    between atoms: _531  and  _533
REMARK  225  A    between atoms: _533  and  _534
REMARK  226  A    between atoms: _533  and  _536
REMARK  227  A    between atoms: _536  and  _537
REMARK  228  A    between atoms: _542  and  _543
REMARK  229  A    between atoms: _545  and  _547
REMARK  230  A    between atoms: _547  and  _548
REMARK  231  A    between atoms: _547  and  _550
REMARK  232  A    between atoms: _550  and  _551
REMARK  233  A    between atoms: _551  and  _552
REMARK  234  A    between atoms: _552  and  _553
REMARK  235  A    between atoms: _553  and  _554
REMARK  236  A    between atoms: _558  and  _560
REMARK  237  A    between atoms: _560  and  _561
REMARK  238  A    between atoms: _560  and  _563
REMARK  239  A    between atoms: _563  and  _564
REMARK  240  A    between atoms: _564  and  _565
REMARK  241  A    between atoms: _568  and  _570
REMARK  242  A    between atoms: _570  and  _571
REMARK  243  A    between atoms: _570  and  _573
REMARK  244  A    between atoms: _573  and  _574
REMARK  245  A    between atoms: _574  and  _575
REMARK  246  A    between atoms: _575  and  _576
REMARK  247  A    between atoms: _576  and  _577
REMARK  248  A    between atoms: _581  and  _583
REMARK  249  A    between atoms: _583  and  _584
REMARK  250  A    between atoms: _583  and  _586
REMARK  251  A    between atoms: _589  and  _591
REMARK  252  A    between atoms: _591  and  _592
REMARK  253  A    between atoms: _591  and  _594
REMARK  254  A    between atoms: _594  and  _595
REMARK  255  A    between atoms: _600  and  _602
REMARK  256  A    between atoms: _602  and  _603
REMARK  257  A    between atoms: _602  and  _605
REMARK  258  A    between atoms: _605  and  _606
REMARK  259  A    between atoms: _606  and  _607
REMARK  260  A    between atoms: _607  and  _608
REMARK  261  A    between atoms: _608  and  _609
REMARK  262  A    between atoms: _614  and  _615
REMARK  263  A    between atoms: _620  and  _622
REMARK  264  A    between atoms: _622  and  _623
REMARK  265  A    between atoms: _622  and  _625
REMARK  266  A    between atoms: _625  and  _626
REMARK  267  A    between atoms: _629  and  _631
REMARK  268  A    between atoms: _631  and  _632
REMARK  269  A    between atoms: _634  and  _636
REMARK  270  A    between atoms: _636  and  _637
REMARK  271  A    between atoms: _636  and  _639
REMARK  272  A    between atoms: _639  and  _640
REMARK                            x       y       z     vdW  Elec       q    Type
REMARK                         _______ _______ _______ _____ _____    ______ ____
ROOT
ATOM      1  CB  HIS A   1      -0.499  96.871  26.181  0.00  0.00    +0.072 C 
ENDROOT
BRANCH   1   2
ATOM      2  CG  HIS A   1      -1.763  96.854  26.992  0.00  0.00    +0.082 A 
ATOM      3  ND1 HIS A   1      -1.955  97.655  28.100  0.00  0.00    -0.227 NA
ATOM      4  CE1 HIS A   1      -3.149  97.418  28.615  0.00  0.00    +0.199 A 
ATOM      5  NE2 HIS A   1      -3.749  96.505  27.872  0.00  0.00    -0.221 NA
ATOM      6  CD2 HIS A   1      -2.900  96.127  26.858  0.00  0.00    +0.115 A 
ENDBRANCH   1   2
BRANCH   1   7
ATOM      7  CA  HIS A   1      -0.335  98.108  25.304  0.00  0.00    +0.139 C 
BRANCH   7   8
ATOM      8  N   HIS A   1      -1.545  98.322  24.492  0.00  0.00    -0.239 NA
ATOM      9  H   HIS A   1      -1.721  97.717  23.665  0.00  0.00    +0.142 HD
ENDBRANCH   7   8
BRANCH   7  10
ATOM     10  C   HIS A   1       0.927  97.982  24.429  0.00  0.00    +0.224 C 
ATOM     11  O   HIS A   1       0.842  98.097  23.209  0.00  0.00    -0.287 OA
ENDBRANCH   7  10
ENDBRANCH   1   7
TORSDOF 4
REMARK  Name = ../refined-set-2016/4zl4/4zl4_pocket.pdb
REMARK  272 active torsions:
REMARK  status: ('A' for Active; 'I' for Inactive)
REMARK    1  A    between atoms: _1  and  _3
REMARK    2  A    between atoms: _3  and  _4
REMARK    3  A    between atoms: _3  and  _6
REMARK    4  A    between atoms: _6  and  _7
REMARK    5  A    between atoms: _10  and  _12
REMARK    6  A    between atoms: _12  and  _13
REMARK    7  A    between atoms: _12  and  _15
REMARK    8  A    between atoms: _15  and  _16
REMARK    9  A    between atoms: _19  and  _21
REMARK   10  A    between atoms: _21  and  _22
REMARK   11  A    between atoms: _21  and  _24
REMARK   12  A    between atoms: _24  and  _25
REMARK   13  A    between atoms: _28  and  _30
REMARK   14  A    between atoms: _30  and  _31
REMARK   15  A    between atoms: _30  and  _33
REMARK   16  A    between atoms: _33  and  _34
REMARK   17  A    between atoms: _34  and  _35
REMARK   18  A    between atoms: _38  and  _40
REMARK   19  A    between atoms: _40  and  _41
REMARK   20  A    between atoms: _40  and  _43
REMARK   21  A    between atoms: _43  and  _44
REMARK   22  A    between atoms: _49  and  _50
REMARK   23  A    between atoms: _52  and  _54
REMARK   24  A    between atoms: _54  and  _55
REMARK   25  A    between atoms: _58  and  _60
REMARK   26  A    between atoms: _60  and  _61
REMARK   27  A    between atoms: _60  and  _63
REMARK   28  A    between atoms: _63  and  _64
REMARK   29  A    between atoms: _69  and  _70
REMARK   30  A    between atoms: _72  and  _74
REMARK   31  A    between atoms: _74  and  _75
REMARK   32  A    between atoms: _74  and  _77
REMARK   33  A    between atoms: _77  and  _78
REMARK   34  A    between atoms: _83  and  _84
REMARK   35  A    between atoms: _86  and  _88
REMARK   36  A    between atoms: _88  and  _89
REMARK   37  A    between atoms: _88  and  _91
REMARK   38  A    between atoms: _91  and  _92
REMARK   39  A    between atoms: _95  and  _97
REMARK   40  A    between atoms: _97  and  _98
REMARK   41  A    between atoms: _97  and  _100
REMARK   42  A    between atoms: _100  and  _101
REMARK   43  A    between atoms: _104  and  _106
REMARK   44  A    between atoms: _106  and  _107
REMARK   45  A    between atoms: _106  and  _109
REMARK   46  A    between atoms: _109  and  _110
REMARK   47  A    between atoms: _113  and  _115
REMARK   48  A    between atoms: _115  and  _116
REMARK   49  A    between atoms: _115  and  _118
REMARK   50  A    between atoms: _118  and  _119
REMARK   51  A    between atoms: _122  and  _124
REMARK   52  A    between atoms: _124  and  _125
REMARK   53  A    between atoms: _127  and  _129
REMARK   54  A    between atoms: _129  and  _130
REMARK   55  A    between atoms: _129  and  _132
REMARK   56  A    between atoms: _132  and  _133
REMARK   57  A    between atoms: _135  and  _137
REMARK   58  A    between atoms: _137  and  _138
REMARK   59  A    between atoms: _137  and  _140
REMARK   60  A    between atoms: _140  and  _141
REMARK   61  A    between atoms: _143  and  _145
REMARK   62  A    between atoms: _145  and  _146
REMARK   63  A    between atoms: _145  and  _148
REMARK   64  A    between atoms: _148  and  _149
REMARK   65  A    between atoms: _151  and  _153
REMARK   66  A    between atoms: _153  and  _154
REMARK   67  A    between atoms: _153  and  _156
REMARK   68  A    between atoms: _156  and  _157
REMARK   69  A    between atoms: _162  and  _164
REMARK   70  A    between atoms: _164  and  _165
REMARK   71  A    between atoms: _164  and  _167
REMARK   72  A    between atoms: _167  and  _168
REMARK   73  A    between atoms: _168  and  _169
REMARK   74  A    between atoms: _174  and  _176
REMARK   75  A    between atoms: _176  and  _177
REMARK   76  A    between atoms: _176  and  _179
REMARK   77  A    between atoms: _179  and  _180
REMARK   78  A    between atoms: _182  and  _184
REMARK   79  A    between atoms: _184  and  _185
REMARK   80  A    between atoms: _184  and  _187
REMARK   81  A    between atoms: _187  and  _188
REMARK   82  A    between atoms: _193  and  _194
REMARK   83  A    between atoms: _196  and  _198
REMARK   84  A    between atoms: _198  and  _199
REMARK   85  A    between atoms: _198  and  _201
REMARK   86  A    between atoms: _203  and  _205
REMARK   87  A    between atoms: _205  and  _206
REMARK   88  A    between atoms: _205  and  _208
REMARK   89  A    between atoms: _208  and  _209
REMARK   90  A    between atoms: _209  and  _210
REMARK   91  A    between atoms: _213  and  _215
REMARK   92  A    between atoms: _215  and  _216
REMARK   93  A    between atoms: _218  and  _220
REMARK   94  A    between atoms: _220  and  _221
REMARK   95  A    between atoms: _220  and  _223
REMARK   96  A    between atoms: _223  and  _224
REMARK   97  A    between atoms: _226  and  _228
REMARK   98  A    between atoms: _228  and  _229
REMARK   99  A    between atoms: _228  and  _231
REMARK  100  A    between atoms: _231  and  _232
REMARK  101  A    between atoms: _235  and  _237
REMARK  102  A    between atoms: _237  and  _238
REMARK  103  A    between atoms: _237  and  _240
REMARK  104  A    between atoms: _240  and  _241
REMARK  105  A    between atoms: _241  and  _242
REMARK  106  A    between atoms: _245  and  _247
REMARK  107  A    between atoms: _247  and  _248
REMARK  108  A    between atoms: _247  and  _250
REMARK  109  A    between atoms: _250  and  _251
REMARK  110  A    between atoms: _253  and  _255
REMARK  111  A    between atoms: _255  and  _256
REMARK  112  A    between atoms: _255  and  _258
REMARK  113  A    between atoms: _258  and  _259
REMARK  114  A    between atoms: _262  and  _264
REMARK  115  A    between atoms: _264  and  _265
REMARK  116  A    between atoms: _264  and  _267
REMARK  117  A    between atoms: _267  and  _268
REMARK  118  A    between atoms: _274  and  _276
REMARK  119  A    between atoms: _276  and  _277
REMARK  120  A    between atoms: _276  and  _279
REMARK  121  A    between atoms: _279  and  _280
REMARK  122  A    between atoms: _283  and  _285
REMARK  123  A    between atoms: _285  and  _286
REMARK  124  A    between atoms: _285  and  _288
REMARK  125  A    between atoms: _288  and  _289
REMARK  126  A    between atoms: _294  and  _295
REMARK  127  A    between atoms: _297  and  _299
REMARK  128  A    between atoms: _299  and  _300
REMARK  129  A    between atoms: _299  and  _302
REMARK  130  A    between atoms: _302  and  _303
REMARK  131  A    between atoms: _303  and  _304
REMARK  132  A    between atoms: _309  and  _311
REMARK  133  A    between atoms: _311  and  _312
REMARK  134  A    between atoms: _311  and  _314
REMARK  135  A    between atoms: _314  and  _315
REMARK  136  A    between atoms: _315  and  _316
REMARK  137  A    between atoms: _321  and  _323
REMARK  138  A    between atoms: _323  and  _324
REMARK  139  A    between atoms: _327  and  _329
REMARK  140  A    between atoms: _329  and  _330
REMARK  141  A    between atoms: _332  and  _334
REMARK  142  A    between atoms: _334  and  _335
REMARK  143  A    between atoms: _334  and  _337
REMARK  144  A    between atoms: _340  and  _342
REMARK  145  A    between atoms: _342  and  _343
REMARK  146  A    between atoms: _342  and  _345
REMARK  147  A    between atoms: _345  and  _346
REMARK  148  A    between atoms: _349  and  _351
REMARK  149  A    between atoms: _351  and  _352
REMARK  150  A    between atoms: _354  and  _356
REMARK  151  A    between atoms: _356  and  _357
REMARK  152  A    between atoms: _356  and  _359
REMARK  153  A    between atoms: _359  and  _360
REMARK  154  A    between atoms: _360  and  _361
REMARK  155  A    between atoms: _363  and  _365
REMARK  156  A    between atoms: _365  and  _366
REMARK  157  A    between atoms: _365  and  _368
REMARK  158  A    between atoms: _368  and  _369
REMARK  159  A    between atoms: _371  and  _373
REMARK  160  A    between atoms: _373  and  _374
REMARK  161  A    between atoms: _373  and  _376
REMARK  162  A    between atoms: _376  and  _377
REMARK  163  A    between atoms: _377  and  _378
REMARK  164  A    between atoms: _378  and  _379
REMARK  165  A    between atoms: _379  and  _380
REMARK  166  A    between atoms: _384  and  _386
REMARK  167  A    between atoms: _386  and  _387
REMARK  168  A    between atoms: _386  and  _389
REMARK  169  A    between atoms: _389  and  _390
REMARK  170  A    between atoms: _390  and  _391
REMARK  171  A    between atoms: _391  and  _392
REMARK  172  A    between atoms: _401  and  _403
REMARK  173  A    between atoms: _403  and  _404
REMARK  174  A    between atoms: _403  and  _406
REMARK  175  A    between atoms: _406  and  _407
REMARK  176  A    between atoms: _412  and  _413
REMARK  177  A    between atoms: _415  and  _417
REMARK  178  A    between atoms: _417  and  _418
REMARK  179  A    between atoms: _417  and  _420
REMARK  180  A    between atoms: _420  and  _421
REMARK  181  A    between atoms: _426  and  _427
REMARK  182  A    between atoms: _429  and  _431
REMARK  183  A    between atoms: _431  and  _432
REMARK  184  A    between atoms: _431  and  _434
REMARK  185  A    between atoms: _434  and  _435
REMARK  186  A    between atoms: _440  and  _441
REMARK  187  A    between atoms: _443  and  _445
REMARK  188  A    between atoms: _445  and  _446
REMARK  189  A    between atoms: _445  and  _448
REMARK  190  A    between atoms: _448  and  _449
REMARK  191  A    between atoms: _452  and  _454
REMARK  192  A    between atoms: _454  and  _455
REMARK  193  A    between atoms: _454  and  _457
REMARK  194  A    between atoms: _460  and  _462
REMARK  195  A    between atoms: _462  and  _463
REMARK  196  A    between atoms: _462  and  _465
REMARK  197  A    between atoms: _465  and  _466
REMARK  198  A    between atoms: _469  and  _471
REMARK  199  A    between atoms: _471  and  _472
REMARK  200  A    between atoms: _471  and  _474
REMARK  201  A    between atoms: _474  and  _475
REMARK  202  A    between atoms: _477  and  _479
REMARK  203  A    between atoms: _479  and  _480
REMARK  204  A    between atoms: _482  and  _484
REMARK  205  A    between atoms: _484  and  _485
REMARK  206  A    between atoms: _484  and  _487
REMARK  207  A    between atoms: _487  and  _488
REMARK  208  A    between atoms: _490  and  _492
REMARK  209  A    between atoms: _492  and  _493
REMARK  210  A    between atoms: _492  and  _495
REMARK  211  A    between atoms: _495  and  _496
REMARK  212  A    between atoms: _499  and  _501
REMARK  213  A    between atoms: _501  and  _502
REMARK  214  A    between atoms: _501  and  _504
REMARK  215  A    between atoms: _504  and  _505
REMARK  216  A    between atoms: _511  and  _513
REMARK  217  A    between atoms: _513  and  _514
REMARK  218  A    between atoms: _513  and  _516
REMARK  219  A    between atoms: _516  and  _517
REMARK  220  A    between atoms: _520  and  _522
REMARK  221  A    between atoms: _522  and  _523
REMARK  222  A    between atoms: _522  and  _525
REMARK  223  A    between atoms: _525  and  _526
REMARK  224  A    between atoms: _531  and  _533
REMARK  225  A    between atoms: _533  and  _534
REMARK  226  A    between atoms: _533  and  _536
REMARK  227  A    between atoms: _536  and  _537
REMARK  228  A    between atoms: _542  and  _543
REMARK  229  A    between atoms: _545  and  _547
REMARK  230  A    between atoms: _547  and  _548
REMARK  231  A    between atoms: _547  and  _550
REMARK  232  A    between atoms: _550  and  _551
REMARK  233  A    between atoms: _551  and  _552
REMARK  234  A    between atoms: _552  and  _553
REMARK  235  A    between atoms: _553  and  _554
REMARK  236  A    between atoms: _558  and  _560
REMARK  237  A    between atoms: _560  and  _561
REMARK  238  A    between atoms: _560  and  _563
REMARK  239  A    between atoms: _563  and  _564
REMARK  240  A    between atoms: _564  and  _565
REMARK  241  A    between atoms: _568  and  _570
REMARK  242  A    between atoms: _570  and  _571
REMARK  243  A    between atoms: _570  and  _573
REMARK  244  A    between atoms: _573  and  _574
REMARK  245  A    between atoms: _574  and  _575
REMARK  246  A    between atoms: _575  and  _576
REMARK  247  A    between atoms: _576  and  _577
REMARK  248  A    between atoms: _581  and  _583
REMARK  249  A    between atoms: _583  and  _584
REMARK  250  A    between atoms: _583  and  _586
REMARK  251  A    between atoms: _589  and  _591
REMARK  252  A    between atoms: _591  and  _592
REMARK  253  A    between atoms: _591  and  _594
REMARK  254  A    between atoms: _594  and  _595
REMARK  255  A    between atoms: _600  and  _602
REMARK  256  A    between atoms: _602  and  _603
REMARK  257  A    between atoms: _602  and  _605
REMARK  258  A    between atoms: _605  and  _606
REMARK  259  A    between atoms: _606  and  _607
REMARK  260  A    between atoms: _607  and  _608
REMARK  261  A    between atoms: _608  and  _609
REMARK  262  A    between atoms: _614  and  _615
REMARK  263  A    between atoms: _620  and  _622
REMARK  264  A    between atoms: _622  and  _623
REMARK  265  A    between atoms: _622  and  _625
REMARK  266  A    between atoms: _625  and  _626
REMARK  267  A    between atoms: _629  and  _631
REMARK  268  A    between atoms: _631  and  _632
REMARK  269  A    between atoms: _634  and  _636
REMARK  270  A    between atoms: _636  and  _637
REMARK  271  A    between atoms: _636  and  _639
REMARK  272  A    between atoms: _639  and  _640
REMARK                            x       y       z     vdW  Elec       q    Type
REMARK                         _______ _______ _______ _____ _____    ______ ____
ROOT
ATOM      1  CA  TYR A   3      -8.286  95.257  42.348  0.00  0.00    +0.153 C 
ENDROOT
BRANCH   1   4
ATOM      2  C   SER A   2     -10.027  93.622  42.080  0.00  0.00    +0.243 C 
ATOM      3  O   SER A   2      -9.537  92.913  42.955  0.00  0.00    -0.273 OA
ATOM      4  N   TYR A   3      -9.482  94.762  41.700  0.00  0.00    -0.297 N 
ATOM      5  H   TYR A   3      -9.915  95.309  40.929  0.00  0.00    +0.150 HD
BRANCH   2   6
ATOM      6  CA  SER A   2     -11.308  93.222  41.372  0.00  0.00    +0.178 C 
BRANCH   6   8
ATOM      7  C   GLN A   1     -10.874  91.602  39.601  0.00  0.00    +0.238 C 
ATOM      8  N   SER A   2     -11.164  91.860  40.875  0.00  0.00    -0.295 N 
ATOM      9  H   SER A   2     -11.291  91.066  41.534  0.00  0.00    +0.150 HD
ATOM     10  O   GLN A   1     -10.955  92.443  38.694  0.00  0.00    -0.274 OA
BRANCH   7  11
ATOM     11  CA  GLN A   1     -10.452  90.179  39.301  0.00  0.00    +0.145 C 
BRANCH  11  12
ATOM     12  N   GLN A   1     -11.270  89.608  38.246  0.00  0.00    -0.238 NA
ATOM     13  H   GLN A   1     -11.646  90.236  37.507  0.00  0.00    +0.142 HD
ENDBRANCH  11  12
BRANCH  11  14
ATOM     14  CB  GLN A   1      -8.971  90.153  38.919  0.00  0.00    +0.036 C 
BRANCH  14  15
ATOM     15  CG  GLN A   1      -8.029  90.627  40.036  0.00  0.00    +0.087 C 
BRANCH  15  16
ATOM     16  CD  GLN A   1      -7.940  89.633  41.193  0.00  0.00    +0.219 C 
ATOM     17  NE2 GLN A   1      -8.544  89.985  42.321  0.00  0.00    -0.329 N 
ATOM     18 HE21 GLN A   1      -8.534  89.343  43.139  0.00  0.00    +0.145 HD
ATOM     19 HE22 GLN A   1      -9.028  90.903  42.387  0.00  0.00    +0.145 HD
ATOM     20  OE1 GLN A   1      -7.351  88.553  41.062  0.00  0.00    -0.275 OA
ENDBRANCH  15  16
ENDBRANCH  14  15
ENDBRANCH  11  14
ENDBRANCH   7  11
ENDBRANCH   6   8
BRANCH   6  21
ATOM     21  CB  SER A   2     -12.488  93.349  42.325  0.00  0.00    +0.166 C 
BRANCH  21  22
ATOM     22  OG  SER A   2     -13.700  93.221  41.623  0.00  0.00    -0.380 OA
ATOM     23  H   SER A   2     -13.760  93.933  40.938  0.00  0.00    +0.211 HD
ENDBRANCH  21  22
ENDBRANCH   6  21
ENDBRANCH   2   6
ENDBRANCH   1   4
BRANCH   1  24
ATOM     24  C   TYR A   3      -8.630  96.402  43.286  0.00  0.00    +0.241 C 
ATOM     25  N   CYS A   4      -7.774  96.620  44.281  0.00  0.00    -0.296 N 
ATOM     26  H   CYS A   4      -6.927  96.021  44.354  0.00  0.00    +0.150 HD
ATOM     27  O   TYR A   3      -9.670  97.047  43.128  0.00  0.00    -0.273 OA
BRANCH  25  28
ATOM     28  CA  CYS A   4      -7.981  97.669  45.273  0.00  0.00    +0.160 C 
BRANCH  28  29
ATOM     29  C   CYS A   4      -8.129  99.066  44.655  0.00  0.00    +0.242 C 
ATOM     30  O   CYS A   4      -8.900  99.893  45.147  0.00  0.00    -0.273 OA
ATOM     31  N   GLU A   5      -7.390  99.320  43.579  0.00  0.00    -0.297 N 
ATOM     32  H   GLU A   5      -6.769  98.574  43.205  0.00  0.00    +0.150 HD
BRANCH  31  33
ATOM     33  CA  GLU A   5      -7.426 100.619  42.906  0.00  0.00    +0.149 C 
BRANCH  33  34
ATOM     34  C   GLU A   5      -8.805 100.904  42.309  0.00  0.00    +0.241 C 
ATOM     35  O   GLU A   5      -9.139 102.073  42.072  0.00  0.00    -0.273 OA
ATOM     36  N   GLY A   6      -9.600  99.851  42.068  0.00  0.00    -0.295 N 
ATOM     37  H   GLY A   6      -9.236  98.893  42.245  0.00  0.00    +0.150 HD
BRANCH  36  38
ATOM     38  CA  GLY A   6     -10.968 100.011  41.562  0.00  0.00    +0.176 C 
BRANCH  38  39
ATOM     39  C   GLY A   6     -11.248  99.351  40.214  0.00  0.00    +0.243 C 
ATOM     40  O   GLY A   6     -12.376  99.325  39.739  0.00  0.00    -0.273 OA
ATOM     41  N   SER A   7     -10.210  98.804  39.599  0.00  0.00    -0.296 N 
ATOM     42  H   SER A   7      -9.275  98.857  40.051  0.00  0.00    +0.150 HD
BRANCH  41  43
ATOM     43  CA  SER A   7     -10.331  98.133  38.317  0.00  0.00    +0.166 C 
BRANCH  43  44
ATOM     44  CB  SER A   7     -11.078  96.796  38.426  0.00  0.00    +0.229 C 
ATOM     45  OG  SER A   7     -10.786  95.984  39.311  0.00  0.00    -0.286 OA
ENDBRANCH  43  44
BRANCH  43  46
ATOM     46  C   SER A   7      -8.936  97.878  37.724  0.00  0.00    +0.165 C 
BRANCH  46  47
ATOM     47  O   SER A   7      -8.102  99.012  37.795  0.00  0.00    -0.380 OA
ATOM     48  H   SER A   7      -7.219  98.796  37.402  0.00  0.00    +0.211 HD
ENDBRANCH  46  47
ENDBRANCH  43  46
ENDBRANCH  41  43
ENDBRANCH  38  39
ENDBRANCH  36  38
ENDBRANCH  33  34
BRANCH  33  49
ATOM     49  CB  GLU A   5      -6.353 100.694  41.808  0.00  0.00    +0.041 C 
BRANCH  49  50
ATOM     50  CG  GLU A   5      -6.619  99.762  40.641  0.00  0.00    +0.116 C 
BRANCH  50  51
ATOM     51  CD  GLU A   5      -5.485  99.710  39.645  0.00  0.00    +0.365 C 
ATOM     52  OE2 GLU A   5      -4.333 100.016  40.035  0.00  0.00    -0.246 OA
ATOM     53  OE1 GLU A   5      -5.746  99.350  38.474  0.00  0.00    -0.246 OA
ENDBRANCH  50  51
ENDBRANCH  49  50
ENDBRANCH  33  49
ENDBRANCH  31  33
ENDBRANCH  28  29
BRANCH  28  54
ATOM     54  CB  CYS A   4      -6.826  97.670  46.280  0.00  0.00    +0.098 C 
ATOM     55  SG  CYS A   4      -6.957  96.383  47.544  0.00  0.00    -0.080 S 
ENDBRANCH  28  54
ENDBRANCH  25  28
ENDBRANCH   1  24
BRANCH   1  56
ATOM     56  CB  TYR A   3      -7.270  95.711  41.316  0.00  0.00    +0.055 C 
BRANCH  56  57
ATOM     57  CG  TYR A   3      -6.678  94.619  40.446  0.00  0.00    -0.020 A 
ATOM     58  CD2 TYR A   3      -5.660  93.808  40.916  0.00  0.00    -0.001 A 
ATOM     59  CE2 TYR A   3      -5.081  92.857  40.115  0.00  0.00    +0.036 A 
ATOM     60  CZ  TYR A   3      -5.512  92.699  38.812  0.00  0.00    +0.134 A 
ATOM     61  CE1 TYR A   3      -6.504  93.503  38.315  0.00  0.00    +0.036 A 
ATOM     62  CD1 TYR A   3      -7.082  94.456  39.134  0.00  0.00    -0.001 A 
BRANCH  60  63
ATOM     63  OH  TYR A   3      -4.945  91.739  38.000  0.00  0.00    -0.506 OA
ATOM     64  HH  TYR A   3      -4.250  91.248  38.507  0.00  0.00    +0.292 HD
ENDBRANCH  60  63
ENDBRANCH  56  57
ENDBRANCH   1  56
TORSDOF 28
REMARK  Name = ../refined-set-2016/4zl4/4zl4_pocket.pdb
REMARK  272 active torsions:
REMARK  status: ('A' for Active; 'I' for Inactive)
REMARK    1  A    between atoms: _1  and  _3
REMARK    2  A    between atoms: _3  and  _4
REMARK    3  A    between atoms: _3  and  _6
REMARK    4  A    between atoms: _6  and  _7
REMARK    5  A    between atoms: _10  and  _12
REMARK    6  A    between atoms: _12  and  _13
REMARK    7  A    between atoms: _12  and  _15
REMARK    8  A    between atoms: _15  and  _16
REMARK    9  A    between atoms: _19  and  _21
REMARK   10  A    between atoms: _21  and  _22
REMARK   11  A    between atoms: _21  and  _24
REMARK   12  A    between atoms: _24  and  _25
REMARK   13  A    between atoms: _28  and  _30
REMARK   14  A    between atoms: _30  and  _31
REMARK   15  A    between atoms: _30  and  _33
REMARK   16  A    between atoms: _33  and  _34
REMARK   17  A    between atoms: _34  and  _35
REMARK   18  A    between atoms: _38  and  _40
REMARK   19  A    between atoms: _40  and  _41
REMARK   20  A    between atoms: _40  and  _43
REMARK   21  A    between atoms: _43  and  _44
REMARK   22  A    between atoms: _49  and  _50
REMARK   23  A    between atoms: _52  and  _54
REMARK   24  A    between atoms: _54  and  _55
REMARK   25  A    between atoms: _58  and  _60
REMARK   26  A    between atoms: _60  and  _61
REMARK   27  A    between atoms: _60  and  _63
REMARK   28  A    between atoms: _63  and  _64
REMARK   29  A    between atoms: _69  and  _70
REMARK   30  A    between atoms: _72  and  _74
REMARK   31  A    between atoms: _74  and  _75
REMARK   32  A    between atoms: _74  and  _77
REMARK   33  A    between atoms: _77  and  _78
REMARK   34  A    between atoms: _83  and  _84
REMARK   35  A    between atoms: _86  and  _88
REMARK   36  A    between atoms: _88  and  _89
REMARK   37  A    between atoms: _88  and  _91
REMARK   38  A    between atoms: _91  and  _92
REMARK   39  A    between atoms: _95  and  _97
REMARK   40  A    between atoms: _97  and  _98
REMARK   41  A    between atoms: _97  and  _100
REMARK   42  A    between atoms: _100  and  _101
REMARK   43  A    between atoms: _104  and  _106
REMARK   44  A    between atoms: _106  and  _107
REMARK   45  A    between atoms: _106  and  _109
REMARK   46  A    between atoms: _109  and  _110
REMARK   47  A    between atoms: _113  and  _115
REMARK   48  A    between atoms: _115  and  _116
REMARK   49  A    between atoms: _115  and  _118
REMARK   50  A    between atoms: _118  and  _119
REMARK   51  A    between atoms: _122  and  _124
REMARK   52  A    between atoms: _124  and  _125
REMARK   53  A    between atoms: _127  and  _129
REMARK   54  A    between atoms: _129  and  _130
REMARK   55  A    between atoms: _129  and  _132
REMARK   56  A    between atoms: _132  and  _133
REMARK   57  A    between atoms: _135  and  _137
REMARK   58  A    between atoms: _137  and  _138
REMARK   59  A    between atoms: _137  and  _140
REMARK   60  A    between atoms: _140  and  _141
REMARK   61  A    between atoms: _143  and  _145
REMARK   62  A    between atoms: _145  and  _146
REMARK   63  A    between atoms: _145  and  _148
REMARK   64  A    between atoms: _148  and  _149
REMARK   65  A    between atoms: _151  and  _153
REMARK   66  A    between atoms: _153  and  _154
REMARK   67  A    between atoms: _153  and  _156
REMARK   68  A    between atoms: _156  and  _157
REMARK   69  A    between atoms: _162  and  _164
REMARK   70  A    between atoms: _164  and  _165
REMARK   71  A    between atoms: _164  and  _167
REMARK   72  A    between atoms: _167  and  _168
REMARK   73  A    between atoms: _168  and  _169
REMARK   74  A    between atoms: _174  and  _176
REMARK   75  A    between atoms: _176  and  _177
REMARK   76  A    between atoms: _176  and  _179
REMARK   77  A    between atoms: _179  and  _180
REMARK   78  A    between atoms: _182  and  _184
REMARK   79  A    between atoms: _184  and  _185
REMARK   80  A    between atoms: _184  and  _187
REMARK   81  A    between atoms: _187  and  _188
REMARK   82  A    between atoms: _193  and  _194
REMARK   83  A    between atoms: _196  and  _198
REMARK   84  A    between atoms: _198  and  _199
REMARK   85  A    between atoms: _198  and  _201
REMARK   86  A    between atoms: _203  and  _205
REMARK   87  A    between atoms: _205  and  _206
REMARK   88  A    between atoms: _205  and  _208
REMARK   89  A    between atoms: _208  and  _209
REMARK   90  A    between atoms: _209  and  _210
REMARK   91  A    between atoms: _213  and  _215
REMARK   92  A    between atoms: _215  and  _216
REMARK   93  A    between atoms: _218  and  _220
REMARK   94  A    between atoms: _220  and  _221
REMARK   95  A    between atoms: _220  and  _223
REMARK   96  A    between atoms: _223  and  _224
REMARK   97  A    between atoms: _226  and  _228
REMARK   98  A    between atoms: _228  and  _229
REMARK   99  A    between atoms: _228  and  _231
REMARK  100  A    between atoms: _231  and  _232
REMARK  101  A    between atoms: _235  and  _237
REMARK  102  A    between atoms: _237  and  _238
REMARK  103  A    between atoms: _237  and  _240
REMARK  104  A    between atoms: _240  and  _241
REMARK  105  A    between atoms: _241  and  _242
REMARK  106  A    between atoms: _245  and  _247
REMARK  107  A    between atoms: _247  and  _248
REMARK  108  A    between atoms: _247  and  _250
REMARK  109  A    between atoms: _250  and  _251
REMARK  110  A    between atoms: _253  and  _255
REMARK  111  A    between atoms: _255  and  _256
REMARK  112  A    between atoms: _255  and  _258
REMARK  113  A    between atoms: _258  and  _259
REMARK  114  A    between atoms: _262  and  _264
REMARK  115  A    between atoms: _264  and  _265
REMARK  116  A    between atoms: _264  and  _267
REMARK  117  A    between atoms: _267  and  _268
REMARK  118  A    between atoms: _274  and  _276
REMARK  119  A    between atoms: _276  and  _277
REMARK  120  A    between atoms: _276  and  _279
REMARK  121  A    between atoms: _279  and  _280
REMARK  122  A    between atoms: _283  and  _285
REMARK  123  A    between atoms: _285  and  _286
REMARK  124  A    between atoms: _285  and  _288
REMARK  125  A    between atoms: _288  and  _289
REMARK  126  A    between atoms: _294  and  _295
REMARK  127  A    between atoms: _297  and  _299
REMARK  128  A    between atoms: _299  and  _300
REMARK  129  A    between atoms: _299  and  _302
REMARK  130  A    between atoms: _302  and  _303
REMARK  131  A    between atoms: _303  and  _304
REMARK  132  A    between atoms: _309  and  _311
REMARK  133  A    between atoms: _311  and  _312
REMARK  134  A    between atoms: _311  and  _314
REMARK  135  A    between atoms: _314  and  _315
REMARK  136  A    between atoms: _315  and  _316
REMARK  137  A    between atoms: _321  and  _323
REMARK  138  A    between atoms: _323  and  _324
REMARK  139  A    between atoms: _327  and  _329
REMARK  140  A    between atoms: _329  and  _330
REMARK  141  A    between atoms: _332  and  _334
REMARK  142  A    between atoms: _334  and  _335
REMARK  143  A    between atoms: _334  and  _337
REMARK  144  A    between atoms: _340  and  _342
REMARK  145  A    between atoms: _342  and  _343
REMARK  146  A    between atoms: _342  and  _345
REMARK  147  A    between atoms: _345  and  _346
REMARK  148  A    between atoms: _349  and  _351
REMARK  149  A    between atoms: _351  and  _352
REMARK  150  A    between atoms: _354  and  _356
REMARK  151  A    between atoms: _356  and  _357
REMARK  152  A    between atoms: _356  and  _359
REMARK  153  A    between atoms: _359  and  _360
REMARK  154  A    between atoms: _360  and  _361
REMARK  155  A    between atoms: _363  and  _365
REMARK  156  A    between atoms: _365  and  _366
REMARK  157  A    between atoms: _365  and  _368
REMARK  158  A    between atoms: _368  and  _369
REMARK  159  A    between atoms: _371  and  _373
REMARK  160  A    between atoms: _373  and  _374
REMARK  161  A    between atoms: _373  and  _376
REMARK  162  A    between atoms: _376  and  _377
REMARK  163  A    between atoms: _377  and  _378
REMARK  164  A    between atoms: _378  and  _379
REMARK  165  A    between atoms: _379  and  _380
REMARK  166  A    between atoms: _384  and  _386
REMARK  167  A    between atoms: _386  and  _387
REMARK  168  A    between atoms: _386  and  _389
REMARK  169  A    between atoms: _389  and  _390
REMARK  170  A    between atoms: _390  and  _391
REMARK  171  A    between atoms: _391  and  _392
REMARK  172  A    between atoms: _401  and  _403
REMARK  173  A    between atoms: _403  and  _404
REMARK  174  A    between atoms: _403  and  _406
REMARK  175  A    between atoms: _406  and  _407
REMARK  176  A    between atoms: _412  and  _413
REMARK  177  A    between atoms: _415  and  _417
REMARK  178  A    between atoms: _417  and  _418
REMARK  179  A    between atoms: _417  and  _420
REMARK  180  A    between atoms: _420  and  _421
REMARK  181  A    between atoms: _426  and  _427
REMARK  182  A    between atoms: _429  and  _431
REMARK  183  A    between atoms: _431  and  _432
REMARK  184  A    between atoms: _431  and  _434
REMARK  185  A    between atoms: _434  and  _435
REMARK  186  A    between atoms: _440  and  _441
REMARK  187  A    between atoms: _443  and  _445
REMARK  188  A    between atoms: _445  and  _446
REMARK  189  A    between atoms: _445  and  _448
REMARK  190  A    between atoms: _448  and  _449
REMARK  191  A    between atoms: _452  and  _454
REMARK  192  A    between atoms: _454  and  _455
REMARK  193  A    between atoms: _454  and  _457
REMARK  194  A    between atoms: _460  and  _462
REMARK  195  A    between atoms: _462  and  _463
REMARK  196  A    between atoms: _462  and  _465
REMARK  197  A    between atoms: _465  and  _466
REMARK  198  A    between atoms: _469  and  _471
REMARK  199  A    between atoms: _471  and  _472
REMARK  200  A    between atoms: _471  and  _474
REMARK  201  A    between atoms: _474  and  _475
REMARK  202  A    between atoms: _477  and  _479
REMARK  203  A    between atoms: _479  and  _480
REMARK  204  A    between atoms: _482  and  _484
REMARK  205  A    between atoms: _484  and  _485
REMARK  206  A    between atoms: _484  and  _487
REMARK  207  A    between atoms: _487  and  _488
REMARK  208  A    between atoms: _490  and  _492
REMARK  209  A    between atoms: _492  and  _493
REMARK  210  A    between atoms: _492  and  _495
REMARK  211  A    between atoms: _495  and  _496
REMARK  212  A    between atoms: _499  and  _501
REMARK  213  A    between atoms: _501  and  _502
REMARK  214  A    between atoms: _501  and  _504
REMARK  215  A    between atoms: _504  and  _505
REMARK  216  A    between atoms: _511  and  _513
REMARK  217  A    between atoms: _513  and  _514
REMARK  218  A    between atoms: _513  and  _516
REMARK  219  A    between atoms: _516  and  _517
REMARK  220  A    between atoms: _520  and  _522
REMARK  221  A    between atoms: _522  and  _523
REMARK  222  A    between atoms: _522  and  _525
REMARK  223  A    between atoms: _525  and  _526
REMARK  224  A    between atoms: _531  and  _533
REMARK  225  A    between atoms: _533  and  _534
REMARK  226  A    between atoms: _533  and  _536
REMARK  227  A    between atoms: _536  and  _537
REMARK  228  A    between atoms: _542  and  _543
REMARK  229  A    between atoms: _545  and  _547
REMARK  230  A    between atoms: _547  and  _548
REMARK  231  A    between atoms: _547  and  _550
REMARK  232  A    between atoms: _550  and  _551
REMARK  233  A    between atoms: _551  and  _552
REMARK  234  A    between atoms: _552  and  _553
REMARK  235  A    between atoms: _553  and  _554
REMARK  236  A    between atoms: _558  and  _560
REMARK  237  A    between atoms: _560  and  _561
REMARK  238  A    between atoms: _560  and  _563
REMARK  239  A    between atoms: _563  and  _564
REMARK  240  A    between atoms: _564  and  _565
REMARK  241  A    between atoms: _568  and  _570
REMARK  242  A    between atoms: _570  and  _571
REMARK  243  A    between atoms: _570  and  _573
REMARK  244  A    between atoms: _573  and  _574
REMARK  245  A    between atoms: _574  and  _575
REMARK  246  A    between atoms: _575  and  _576
REMARK  247  A    between atoms: _576  and  _577
REMARK  248  A    between atoms: _581  and  _583
REMARK  249  A    between atoms: _583  and  _584
REMARK  250  A    between atoms: _583  and  _586
REMARK  251  A    between atoms: _589  and  _591
REMARK  252  A    between atoms: _591  and  _592
REMARK  253  A    between atoms: _591  and  _594
REMARK  254  A    between atoms: _594  and  _595
REMARK  255  A    between atoms: _600  and  _602
REMARK  256  A    between atoms: _602  and  _603
REMARK  257  A    between atoms: _602  and  _605
REMARK  258  A    between atoms: _605  and  _606
REMARK  259  A    between atoms: _606  and  _607
REMARK  260  A    between atoms: _607  and  _608
REMARK  261  A    between atoms: _608  and  _609
REMARK  262  A    between atoms: _614  and  _615
REMARK  263  A    between atoms: _620  and  _622
REMARK  264  A    between atoms: _622  and  _623
REMARK  265  A    between atoms: _622  and  _625
REMARK  266  A    between atoms: _625  and  _626
REMARK  267  A    between atoms: _629  and  _631
REMARK  268  A    between atoms: _631  and  _632
REMARK  269  A    between atoms: _634  and  _636
REMARK  270  A    between atoms: _636  and  _637
REMARK  271  A    between atoms: _636  and  _639
REMARK  272  A    between atoms: _639  and  _640
REMARK                            x       y       z     vdW  Elec       q    Type
REMARK                         _______ _______ _______ _____ _____    ______ ____
ROOT
ATOM      1  CA  ILE A   1     -11.106  92.900  34.836  0.00  0.00    +0.133 C 
ENDROOT
BRANCH   1   2
ATOM      2  N   ILE A   1     -11.544  93.574  36.049  0.00  0.00    -0.239 NA
ATOM      3  H   ILE A   1     -11.276  93.175  36.971  0.00  0.00    +0.142 HD
ENDBRANCH   1   2
BRANCH   1   4
ATOM      4  CB  ILE A   1      -9.548  92.742  34.799  0.00  0.00    +0.023 C 
ATOM      5  CG2 ILE A   1      -9.082  92.221  33.439  0.00  0.00    +0.002 C 
BRANCH   4   6
ATOM      6  CG1 ILE A   1      -8.870  94.076  35.131  0.00  0.00    +0.002 C 
ATOM      7  CD1 ILE A   1      -9.228  95.203  34.183  0.00  0.00    +0.000 C 
ENDBRANCH   4   6
ENDBRANCH   1   4
BRANCH   1   8
ATOM      8  C   ILE A   1     -11.777  91.526  34.743  0.00  0.00    +0.224 C 
ATOM      9  O   ILE A   1     -11.759  90.747  35.683  0.00  0.00    -0.287 OA
ENDBRANCH   1   8
TORSDOF 4
REMARK  Name = ../refined-set-2016/4zl4/4zl4_pocket.pdb
REMARK  272 active torsions:
REMARK  status: ('A' for Active; 'I' for Inactive)
REMARK    1  A    between atoms: _1  and  _3
REMARK    2  A    between atoms: _3  and  _4
REMARK    3  A    between atoms: _3  and  _6
REMARK    4  A    between atoms: _6  and  _7
REMARK    5  A    between atoms: _10  and  _12
REMARK    6  A    between atoms: _12  and  _13
REMARK    7  A    between atoms: _12  and  _15
REMARK    8  A    between atoms: _15  and  _16
REMARK    9  A    between atoms: _19  and  _21
REMARK   10  A    between atoms: _21  and  _22
REMARK   11  A    between atoms: _21  and  _24
REMARK   12  A    between atoms: _24  and  _25
REMARK   13  A    between atoms: _28  and  _30
REMARK   14  A    between atoms: _30  and  _31
REMARK   15  A    between atoms: _30  and  _33
REMARK   16  A    between atoms: _33  and  _34
REMARK   17  A    between atoms: _34  and  _35
REMARK   18  A    between atoms: _38  and  _40
REMARK   19  A    between atoms: _40  and  _41
REMARK   20  A    between atoms: _40  and  _43
REMARK   21  A    between atoms: _43  and  _44
REMARK   22  A    between atoms: _49  and  _50
REMARK   23  A    between atoms: _52  and  _54
REMARK   24  A    between atoms: _54  and  _55
REMARK   25  A    between atoms: _58  and  _60
REMARK   26  A    between atoms: _60  and  _61
REMARK   27  A    between atoms: _60  and  _63
REMARK   28  A    between atoms: _63  and  _64
REMARK   29  A    between atoms: _69  and  _70
REMARK   30  A    between atoms: _72  and  _74
REMARK   31  A    between atoms: _74  and  _75
REMARK   32  A    between atoms: _74  and  _77
REMARK   33  A    between atoms: _77  and  _78
REMARK   34  A    between atoms: _83  and  _84
REMARK   35  A    between atoms: _86  and  _88
REMARK   36  A    between atoms: _88  and  _89
REMARK   37  A    between atoms: _88  and  _91
REMARK   38  A    between atoms: _91  and  _92
REMARK   39  A    between atoms: _95  and  _97
REMARK   40  A    between atoms: _97  and  _98
REMARK   41  A    between atoms: _97  and  _100
REMARK   42  A    between atoms: _100  and  _101
REMARK   43  A    between atoms: _104  and  _106
REMARK   44  A    between atoms: _106  and  _107
REMARK   45  A    between atoms: _106  and  _109
REMARK   46  A    between atoms: _109  and  _110
REMARK   47  A    between atoms: _113  and  _115
REMARK   48  A    between atoms: _115  and  _116
REMARK   49  A    between atoms: _115  and  _118
REMARK   50  A    between atoms: _118  and  _119
REMARK   51  A    between atoms: _122  and  _124
REMARK   52  A    between atoms: _124  and  _125
REMARK   53  A    between atoms: _127  and  _129
REMARK   54  A    between atoms: _129  and  _130
REMARK   55  A    between atoms: _129  and  _132
REMARK   56  A    between atoms: _132  and  _133
REMARK   57  A    between atoms: _135  and  _137
REMARK   58  A    between atoms: _137  and  _138
REMARK   59  A    between atoms: _137  and  _140
REMARK   60  A    between atoms: _140  and  _141
REMARK   61  A    between atoms: _143  and  _145
REMARK   62  A    between atoms: _145  and  _146
REMARK   63  A    between atoms: _145  and  _148
REMARK   64  A    between atoms: _148  and  _149
REMARK   65  A    between atoms: _151  and  _153
REMARK   66  A    between atoms: _153  and  _154
REMARK   67  A    between atoms: _153  and  _156
REMARK   68  A    between atoms: _156  and  _157
REMARK   69  A    between atoms: _162  and  _164
REMARK   70  A    between atoms: _164  and  _165
REMARK   71  A    between atoms: _164  and  _167
REMARK   72  A    between atoms: _167  and  _168
REMARK   73  A    between atoms: _168  and  _169
REMARK   74  A    between atoms: _174  and  _176
REMARK   75  A    between atoms: _176  and  _177
REMARK   76  A    between atoms: _176  and  _179
REMARK   77  A    between atoms: _179  and  _180
REMARK   78  A    between atoms: _182  and  _184
REMARK   79  A    between atoms: _184  and  _185
REMARK   80  A    between atoms: _184  and  _187
REMARK   81  A    between atoms: _187  and  _188
REMARK   82  A    between atoms: _193  and  _194
REMARK   83  A    between atoms: _196  and  _198
REMARK   84  A    between atoms: _198  and  _199
REMARK   85  A    between atoms: _198  and  _201
REMARK   86  A    between atoms: _203  and  _205
REMARK   87  A    between atoms: _205  and  _206
REMARK   88  A    between atoms: _205  and  _208
REMARK   89  A    between atoms: _208  and  _209
REMARK   90  A    between atoms: _209  and  _210
REMARK   91  A    between atoms: _213  and  _215
REMARK   92  A    between atoms: _215  and  _216
REMARK   93  A    between atoms: _218  and  _220
REMARK   94  A    between atoms: _220  and  _221
REMARK   95  A    between atoms: _220  and  _223
REMARK   96  A    between atoms: _223  and  _224
REMARK   97  A    between atoms: _226  and  _228
REMARK   98  A    between atoms: _228  and  _229
REMARK   99  A    between atoms: _228  and  _231
REMARK  100  A    between atoms: _231  and  _232
REMARK  101  A    between atoms: _235  and  _237
REMARK  102  A    between atoms: _237  and  _238
REMARK  103  A    between atoms: _237  and  _240
REMARK  104  A    between atoms: _240  and  _241
REMARK  105  A    between atoms: _241  and  _242
REMARK  106  A    between atoms: _245  and  _247
REMARK  107  A    between atoms: _247  and  _248
REMARK  108  A    between atoms: _247  and  _250
REMARK  109  A    between atoms: _250  and  _251
REMARK  110  A    between atoms: _253  and  _255
REMARK  111  A    between atoms: _255  and  _256
REMARK  112  A    between atoms: _255  and  _258
REMARK  113  A    between atoms: _258  and  _259
REMARK  114  A    between atoms: _262  and  _264
REMARK  115  A    between atoms: _264  and  _265
REMARK  116  A    between atoms: _264  and  _267
REMARK  117  A    between atoms: _267  and  _268
REMARK  118  A    between atoms: _274  and  _276
REMARK  119  A    between atoms: _276  and  _277
REMARK  120  A    between atoms: _276  and  _279
REMARK  121  A    between atoms: _279  and  _280
REMARK  122  A    between atoms: _283  and  _285
REMARK  123  A    between atoms: _285  and  _286
REMARK  124  A    between atoms: _285  and  _288
REMARK  125  A    between atoms: _288  and  _289
REMARK  126  A    between atoms: _294  and  _295
REMARK  127  A    between atoms: _297  and  _299
REMARK  128  A    between atoms: _299  and  _300
REMARK  129  A    between atoms: _299  and  _302
REMARK  130  A    between atoms: _302  and  _303
REMARK  131  A    between atoms: _303  and  _304
REMARK  132  A    between atoms: _309  and  _311
REMARK  133  A    between atoms: _311  and  _312
REMARK  134  A    between atoms: _311  and  _314
REMARK  135  A    between atoms: _314  and  _315
REMARK  136  A    between atoms: _315  and  _316
REMARK  137  A    between atoms: _321  and  _323
REMARK  138  A    between atoms: _323  and  _324
REMARK  139  A    between atoms: _327  and  _329
REMARK  140  A    between atoms: _329  and  _330
REMARK  141  A    between atoms: _332  and  _334
REMARK  142  A    between atoms: _334  and  _335
REMARK  143  A    between atoms: _334  and  _337
REMARK  144  A    between atoms: _340  and  _342
REMARK  145  A    between atoms: _342  and  _343
REMARK  146  A    between atoms: _342  and  _345
REMARK  147  A    between atoms: _345  and  _346
REMARK  148  A    between atoms: _349  and  _351
REMARK  149  A    between atoms: _351  and  _352
REMARK  150  A    between atoms: _354  and  _356
REMARK  151  A    between atoms: _356  and  _357
REMARK  152  A    between atoms: _356  and  _359
REMARK  153  A    between atoms: _359  and  _360
REMARK  154  A    between atoms: _360  and  _361
REMARK  155  A    between atoms: _363  and  _365
REMARK  156  A    between atoms: _365  and  _366
REMARK  157  A    between atoms: _365  and  _368
REMARK  158  A    between atoms: _368  and  _369
REMARK  159  A    between atoms: _371  and  _373
REMARK  160  A    between atoms: _373  and  _374
REMARK  161  A    between atoms: _373  and  _376
REMARK  162  A    between atoms: _376  and  _377
REMARK  163  A    between atoms: _377  and  _378
REMARK  164  A    between atoms: _378  and  _379
REMARK  165  A    between atoms: _379  and  _380
REMARK  166  A    between atoms: _384  and  _386
REMARK  167  A    between atoms: _386  and  _387
REMARK  168  A    between atoms: _386  and  _389
REMARK  169  A    between atoms: _389  and  _390
REMARK  170  A    between atoms: _390  and  _391
REMARK  171  A    between atoms: _391  and  _392
REMARK  172  A    between atoms: _401  and  _403
REMARK  173  A    between atoms: _403  and  _404
REMARK  174  A    between atoms: _403  and  _406
REMARK  175  A    between atoms: _406  and  _407
REMARK  176  A    between atoms: _412  and  _413
REMARK  177  A    between atoms: _415  and  _417
REMARK  178  A    between atoms: _417  and  _418
REMARK  179  A    between atoms: _417  and  _420
REMARK  180  A    between atoms: _420  and  _421
REMARK  181  A    between atoms: _426  and  _427
REMARK  182  A    between atoms: _429  and  _431
REMARK  183  A    between atoms: _431  and  _432
REMARK  184  A    between atoms: _431  and  _434
REMARK  185  A    between atoms: _434  and  _435
REMARK  186  A    between atoms: _440  and  _441
REMARK  187  A    between atoms: _443  and  _445
REMARK  188  A    between atoms: _445  and  _446
REMARK  189  A    between atoms: _445  and  _448
REMARK  190  A    between atoms: _448  and  _449
REMARK  191  A    between atoms: _452  and  _454
REMARK  192  A    between atoms: _454  and  _455
REMARK  193  A    between atoms: _454  and  _457
REMARK  194  A    between atoms: _460  and  _462
REMARK  195  A    between atoms: _462  and  _463
REMARK  196  A    between atoms: _462  and  _465
REMARK  197  A    between atoms: _465  and  _466
REMARK  198  A    between atoms: _469  and  _471
REMARK  199  A    between atoms: _471  and  _472
REMARK  200  A    between atoms: _471  and  _474
REMARK  201  A    between atoms: _474  and  _475
REMARK  202  A    between atoms: _477  and  _479
REMARK  203  A    between atoms: _479  and  _480
REMARK  204  A    between atoms: _482  and  _484
REMARK  205  A    between atoms: _484  and  _485
REMARK  206  A    between atoms: _484  and  _487
REMARK  207  A    between atoms: _487  and  _488
REMARK  208  A    between atoms: _490  and  _492
REMARK  209  A    between atoms: _492  and  _493
REMARK  210  A    between atoms: _492  and  _495
REMARK  211  A    between atoms: _495  and  _496
REMARK  212  A    between atoms: _499  and  _501
REMARK  213  A    between atoms: _501  and  _502
REMARK  214  A    between atoms: _501  and  _504
REMARK  215  A    between atoms: _504  and  _505
REMARK  216  A    between atoms: _511  and  _513
REMARK  217  A    between atoms: _513  and  _514
REMARK  218  A    between atoms: _513  and  _516
REMARK  219  A    between atoms: _516  and  _517
REMARK  220  A    between atoms: _520  and  _522
REMARK  221  A    between atoms: _522  and  _523
REMARK  222  A    between atoms: _522  and  _525
REMARK  223  A    between atoms: _525  and  _526
REMARK  224  A    between atoms: _531  and  _533
REMARK  225  A    between atoms: _533  and  _534
REMARK  226  A    between atoms: _533  and  _536
REMARK  227  A    between atoms: _536  and  _537
REMARK  228  A    between atoms: _542  and  _543
REMARK  229  A    between atoms: _545  and  _547
REMARK  230  A    between atoms: _547  and  _548
REMARK  231  A    between atoms: _547  and  _550
REMARK  232  A    between atoms: _550  and  _551
REMARK  233  A    between atoms: _551  and  _552
REMARK  234  A    between atoms: _552  and  _553
REMARK  235  A    between atoms: _553  and  _554
REMARK  236  A    between atoms: _558  and  _560
REMARK  237  A    between atoms: _560  and  _561
REMARK  238  A    between atoms: _560  and  _563
REMARK  239  A    between atoms: _563  and  _564
REMARK  240  A    between atoms: _564  and  _565
REMARK  241  A    between atoms: _568  and  _570
REMARK  242  A    between atoms: _570  and  _571
REMARK  243  A    between atoms: _570  and  _573
REMARK  244  A    between atoms: _573  and  _574
REMARK  245  A    between atoms: _574  and  _575
REMARK  246  A    between atoms: _575  and  _576
REMARK  247  A    between atoms: _576  and  _577
REMARK  248  A    between atoms: _581  and  _583
REMARK  249  A    between atoms: _583  and  _584
REMARK  250  A    between atoms: _583  and  _586
REMARK  251  A    between atoms: _589  and  _591
REMARK  252  A    between atoms: _591  and  _592
REMARK  253  A    between atoms: _591  and  _594
REMARK  254  A    between atoms: _594  and  _595
REMARK  255  A    between atoms: _600  and  _602
REMARK  256  A    between atoms: _602  and  _603
REMARK  257  A    between atoms: _602  and  _605
REMARK  258  A    between atoms: _605  and  _606
REMARK  259  A    between atoms: _606  and  _607
REMARK  260  A    between atoms: _607  and  _608
REMARK  261  A    between atoms: _608  and  _609
REMARK  262  A    between atoms: _614  and  _615
REMARK  263  A    between atoms: _620  and  _622
REMARK  264  A    between atoms: _622  and  _623
REMARK  265  A    between atoms: _622  and  _625
REMARK  266  A    between atoms: _625  and  _626
REMARK  267  A    between atoms: _629  and  _631
REMARK  268  A    between atoms: _631  and  _632
REMARK  269  A    between atoms: _634  and  _636
REMARK  270  A    between atoms: _636  and  _637
REMARK  271  A    between atoms: _636  and  _639
REMARK  272  A    between atoms: _639  and  _640
REMARK                            x       y       z     vdW  Elec       q    Type
REMARK                         _______ _______ _______ _____ _____    ______ ____
ROOT
ATOM      1  CA  LEU A   5      -6.911 101.638  29.553  0.00  0.00    +0.149 C 
ENDROOT
BRANCH   1   2
ATOM      2  C   LEU A   5      -5.815 102.676  29.298  0.00  0.00    +0.241 C 
ATOM      3  N   TYR A   6      -4.900 102.845  30.244  0.00  0.00    -0.297 N 
ATOM      4  H   TYR A   6      -4.952 102.275  31.113  0.00  0.00    +0.150 HD
ATOM      5  O   LEU A   5      -5.804 103.321  28.254  0.00  0.00    -0.273 OA
BRANCH   3   6
ATOM      6  CA  TYR A   6      -3.825 103.813  30.088  0.00  0.00    +0.153 C 
BRANCH   6   7
ATOM      7  C   TYR A   6      -2.535 103.238  30.605  0.00  0.00    +0.241 C 
ATOM      8  O   TYR A   6      -1.840 103.851  31.404  0.00  0.00    -0.273 OA
ATOM      9  N   GLN A   7      -2.214 102.045  30.137  0.00  0.00    -0.297 N 
ATOM     10  H   GLN A   7      -2.759 101.639  29.350  0.00  0.00    +0.150 HD
BRANCH   9  11
ATOM     11  CA  GLN A   7      -1.119 101.299  30.703  0.00  0.00    +0.149 C 
BRANCH  11  12
ATOM     12  C   GLN A   7      -0.278 100.650  29.621  0.00  0.00    +0.241 C 
ATOM     13  N   GLN A   8       1.019 100.908  29.665  0.00  0.00    -0.297 N 
ATOM     14  H   GLN A   8       1.389 101.513  30.426  0.00  0.00    +0.150 HD
ATOM     15  O   GLN A   7      -0.790  99.947  28.759  0.00  0.00    -0.273 OA
BRANCH  13  16
ATOM     16  CA  GLN A   8       1.940 100.370  28.680  0.00  0.00    +0.149 C 
BRANCH  16  17
ATOM     17  C   GLN A   8       2.094  98.857  28.824  0.00  0.00    +0.241 C 
ATOM     18  N   ALA A   9       2.248  98.383  30.062  0.00  0.00    -0.298 N 
ATOM     19  H   ALA A   9       2.218  99.033  30.873  0.00  0.00    +0.150 HD
ATOM     20  O   GLN A   8       2.070  98.126  27.821  0.00  0.00    -0.273 OA
BRANCH  18  21
ATOM     21  CA  ALA A   9       2.459  96.951  30.281  0.00  0.00    +0.137 C 
ATOM     22  CB  ALA A   9       2.742  96.656  31.733  0.00  0.00    +0.030 C 
BRANCH  21  23
ATOM     23  C   ALA A   9       1.231  96.177  29.784  0.00  0.00    +0.227 C 
ATOM     24  O   ALA A   9       0.088  96.649  29.892  0.00  0.00    -0.286 OA
ENDBRANCH  21  23
ENDBRANCH  18  21
ENDBRANCH  16  17
BRANCH  16  25
ATOM     25  CB  GLN A   8       3.298 101.058  28.798  0.00  0.00    +0.039 C 
BRANCH  25  26
ATOM     26  CG  GLN A   8       3.441 102.316  27.940  0.00  0.00    +0.087 C 
BRANCH  26  27
ATOM     27  CD  GLN A   8       3.540 102.006  26.440  0.00  0.00    +0.219 C 
ATOM     28  OE1 GLN A   8       4.605 101.621  25.945  0.00  0.00    -0.275 OA
ATOM     29  NE2 GLN A   8       2.428 102.169  25.716  0.00  0.00    -0.329 N 
ATOM     30 HE21 GLN A   8       1.553 102.495  26.173  0.00  0.00    +0.145 HD
ATOM     31 HE22 GLN A   8       2.438 101.970  24.695  0.00  0.00    +0.145 HD
ENDBRANCH  26  27
ENDBRANCH  25  26
ENDBRANCH  16  25
ENDBRANCH  13  16
ENDBRANCH  11  12
BRANCH  11  32
ATOM     32  CB  GLN A   7      -1.699 100.286  31.679  0.00  0.00    +0.039 C 
BRANCH  32  33
ATOM     33  CG  GLN A   7      -0.953  99.036  31.896  0.00  0.00    +0.087 C 
BRANCH  33  34
ATOM     34  CD  GLN A   7      -1.824  98.035  32.609  0.00  0.00    +0.219 C 
ATOM     35  OE1 GLN A   7      -2.447  98.356  33.622  0.00  0.00    -0.275 OA
ATOM     36  NE2 GLN A   7      -1.880  96.818  32.091  0.00  0.00    -0.329 N 
ATOM     37 HE21 GLN A   7      -2.468  96.088  32.541  0.00  0.00    +0.145 HD
ATOM     38 HE22 GLN A   7      -1.336  96.592  31.234  0.00  0.00    +0.145 HD
ENDBRANCH  33  34
ENDBRANCH  32  33
ENDBRANCH  11  32
ENDBRANCH   9  11
ENDBRANCH   6   7
BRANCH   6  39
ATOM     39  CB  TYR A   6      -4.155 105.109  30.831  0.00  0.00    +0.055 C 
BRANCH  39  40
ATOM     40  CG  TYR A   6      -5.431 105.767  30.375  0.00  0.00    -0.020 A 
ATOM     41  CD2 TYR A   6      -6.655 105.415  30.935  0.00  0.00    -0.001 A 
ATOM     42  CE2 TYR A   6      -7.831 106.030  30.526  0.00  0.00    +0.036 A 
ATOM     43  CZ  TYR A   6      -7.785 107.016  29.559  0.00  0.00    +0.134 A 
ATOM     44  CE1 TYR A   6      -6.581 107.385  28.992  0.00  0.00    +0.036 A 
ATOM     45  CD1 TYR A   6      -5.414 106.762  29.401  0.00  0.00    -0.001 A 
BRANCH  43  46
ATOM     46  OH  TYR A   6      -8.953 107.629  29.158  0.00  0.00    -0.506 OA
ATOM     47  HH  TYR A   6      -9.715 107.247  29.662  0.00  0.00    +0.292 HD
ENDBRANCH  43  46
ENDBRANCH  39  40
ENDBRANCH   6  39
ENDBRANCH   3   6
ENDBRANCH   1   2
BRANCH   1  49
ATOM     48  C   PHE A   4      -5.898 100.014  31.057  0.00  0.00    +0.241 C 
ATOM     49  N   LEU A   5      -6.783 100.988  30.859  0.00  0.00    -0.297 N 
ATOM     50  H   LEU A   5      -7.393 101.292  31.644  0.00  0.00    +0.150 HD
ATOM     51  O   PHE A   4      -5.187  99.582  30.155  0.00  0.00    -0.273 OA
BRANCH  48  52
ATOM     52  CA  PHE A   4      -5.779  99.461  32.478  0.00  0.00    +0.153 C 
BRANCH  52  54
ATOM     53  C   LEU A   3      -5.580 101.575  33.677  0.00  0.00    +0.241 C 
ATOM     54  N   PHE A   4      -6.234 100.427  33.482  0.00  0.00    -0.297 N 
ATOM     55  H   PHE A   4      -7.079 100.215  34.051  0.00  0.00    +0.150 HD
ATOM     56  O   LEU A   3      -4.553 101.855  33.063  0.00  0.00    -0.273 OA
BRANCH  53  57
ATOM     57  CA  LEU A   3      -6.126 102.549  34.730  0.00  0.00    +0.149 C 
BRANCH  57  59
ATOM     58  C   SER A   2      -8.394 102.676  33.869  0.00  0.00    +0.243 C 
ATOM     59  N   LEU A   3      -7.571 102.479  34.892  0.00  0.00    -0.297 N 
ATOM     60  H   LEU A   3      -7.968 102.270  35.830  0.00  0.00    +0.150 HD
ATOM     61  O   SER A   2      -7.993 102.917  32.736  0.00  0.00    -0.273 OA
BRANCH  58  62
ATOM     62  CA  SER A   2      -9.894 102.592  34.149  0.00  0.00    +0.178 C 
BRANCH  62  65
ATOM     63  C   GLU A   1     -10.161 100.290  33.379  0.00  0.00    +0.238 C 
ATOM     64  O   GLU A   1      -9.084  99.930  33.845  0.00  0.00    -0.274 OA
ATOM     65  N   SER A   2     -10.570 101.552  33.377  0.00  0.00    -0.295 N 
ATOM     66  H   SER A   2     -11.400 101.810  32.806  0.00  0.00    +0.150 HD
BRANCH  63  67
ATOM     67  CA  GLU A   1     -11.120  99.271  32.791  0.00  0.00    +0.145 C 
BRANCH  67  68
ATOM     68  N   GLU A   1     -10.439  98.175  32.102  0.00  0.00    -0.238 NA
ATOM     69  H   GLU A   1      -9.449  97.956  32.334  0.00  0.00    +0.142 HD
ENDBRANCH  67  68
BRANCH  67  70
ATOM     70  CB  GLU A   1     -11.949  98.697  33.931  0.00  0.00    +0.038 C 
BRANCH  70  71
ATOM     71  CG  GLU A   1     -13.365  99.103  33.987  0.00  0.00    +0.116 C 
BRANCH  71  72
ATOM     72  CD  GLU A   1     -14.086  98.355  35.082  0.00  0.00    +0.365 C 
ATOM     73  OE2 GLU A   1     -13.612  98.411  36.246  0.00  0.00    -0.246 OA
ATOM     74  OE1 GLU A   1     -15.107  97.695  34.776  0.00  0.00    -0.246 OA
ENDBRANCH  71  72
ENDBRANCH  70  71
ENDBRANCH  67  70
ENDBRANCH  63  67
ENDBRANCH  62  65
BRANCH  62  75
ATOM     75  CB  SER A   2     -10.150 102.341  35.632  0.00  0.00    +0.166 C 
BRANCH  75  76
ATOM     76  OG  SER A   2     -11.534 102.066  35.850  0.00  0.00    -0.380 OA
ATOM     77  H   SER A   2     -11.689 101.905  36.814  0.00  0.00    +0.211 HD
ENDBRANCH  75  76
ENDBRANCH  62  75
ENDBRANCH  58  62
ENDBRANCH  57  59
BRANCH  57  78
ATOM     78  CB  LEU A   3      -5.433 102.299  36.076  0.00  0.00    +0.029 C 
BRANCH  78  79
ATOM     79  CG  LEU A   3      -5.626 103.439  37.090  0.00  0.00    +0.002 C 
ATOM     80  CD2 LEU A   3      -5.085 103.102  38.484  0.00  0.00    +0.000 C 
ATOM     81  CD1 LEU A   3      -4.993 104.751  36.559  0.00  0.00    +0.000 C 
ENDBRANCH  78  79
ENDBRANCH  57  78
ENDBRANCH  53  57
ENDBRANCH  52  54
BRANCH  52  82
ATOM     82  CB  PHE A   4      -6.565  98.142  32.598  0.00  0.00    +0.055 C 
BRANCH  82  83
ATOM     83  CG  PHE A   4      -6.087  97.262  33.710  0.00  0.00    -0.020 A 
ATOM     84  CD2 PHE A   4      -6.497  97.487  35.015  0.00  0.00    -0.004 A 
ATOM     85  CE2 PHE A   4      -6.047  96.692  36.062  0.00  0.00    -0.000 A 
ATOM     86  CZ  PHE A   4      -5.156  95.655  35.805  0.00  0.00    -0.000 A 
ATOM     87  CE1 PHE A   4      -4.729  95.420  34.511  0.00  0.00    -0.000 A 
ATOM     88  CD1 PHE A   4      -5.193  96.225  33.461  0.00  0.00    -0.004 A 
ENDBRANCH  82  83
ENDBRANCH  52  82
ENDBRANCH  48  52
ENDBRANCH   1  49
BRANCH   1  89
ATOM     89  CB  LEU A   5      -8.289 102.301  29.404  0.00  0.00    +0.029 C 
BRANCH  89  90
ATOM     90  CG  LEU A   5      -9.523 101.379  29.424  0.00  0.00    +0.002 C 
ATOM     91  CD2 LEU A   5     -10.791 102.161  29.155  0.00  0.00    +0.000 C 
ATOM     92  CD1 LEU A   5      -9.379 100.256  28.423  0.00  0.00    +0.000 C 
ENDBRANCH  89  90
ENDBRANCH   1  89
TORSDOF 38
REMARK  Name = ../refined-set-2016/4zl4/4zl4_pocket.pdb
REMARK  272 active torsions:
REMARK  status: ('A' for Active; 'I' for Inactive)
REMARK    1  A    between atoms: _1  and  _3
REMARK    2  A    between atoms: _3  and  _4
REMARK    3  A    between atoms: _3  and  _6
REMARK    4  A    between atoms: _6  and  _7
REMARK    5  A    between atoms: _10  and  _12
REMARK    6  A    between atoms: _12  and  _13
REMARK    7  A    between atoms: _12  and  _15
REMARK    8  A    between atoms: _15  and  _16
REMARK    9  A    between atoms: _19  and  _21
REMARK   10  A    between atoms: _21  and  _22
REMARK   11  A    between atoms: _21  and  _24
REMARK   12  A    between atoms: _24  and  _25
REMARK   13  A    between atoms: _28  and  _30
REMARK   14  A    between atoms: _30  and  _31
REMARK   15  A    between atoms: _30  and  _33
REMARK   16  A    between atoms: _33  and  _34
REMARK   17  A    between atoms: _34  and  _35
REMARK   18  A    between atoms: _38  and  _40
REMARK   19  A    between atoms: _40  and  _41
REMARK   20  A    between atoms: _40  and  _43
REMARK   21  A    between atoms: _43  and  _44
REMARK   22  A    between atoms: _49  and  _50
REMARK   23  A    between atoms: _52  and  _54
REMARK   24  A    between atoms: _54  and  _55
REMARK   25  A    between atoms: _58  and  _60
REMARK   26  A    between atoms: _60  and  _61
REMARK   27  A    between atoms: _60  and  _63
REMARK   28  A    between atoms: _63  and  _64
REMARK   29  A    between atoms: _69  and  _70
REMARK   30  A    between atoms: _72  and  _74
REMARK   31  A    between atoms: _74  and  _75
REMARK   32  A    between atoms: _74  and  _77
REMARK   33  A    between atoms: _77  and  _78
REMARK   34  A    between atoms: _83  and  _84
REMARK   35  A    between atoms: _86  and  _88
REMARK   36  A    between atoms: _88  and  _89
REMARK   37  A    between atoms: _88  and  _91
REMARK   38  A    between atoms: _91  and  _92
REMARK   39  A    between atoms: _95  and  _97
REMARK   40  A    between atoms: _97  and  _98
REMARK   41  A    between atoms: _97  and  _100
REMARK   42  A    between atoms: _100  and  _101
REMARK   43  A    between atoms: _104  and  _106
REMARK   44  A    between atoms: _106  and  _107
REMARK   45  A    between atoms: _106  and  _109
REMARK   46  A    between atoms: _109  and  _110
REMARK   47  A    between atoms: _113  and  _115
REMARK   48  A    between atoms: _115  and  _116
REMARK   49  A    between atoms: _115  and  _118
REMARK   50  A    between atoms: _118  and  _119
REMARK   51  A    between atoms: _122  and  _124
REMARK   52  A    between atoms: _124  and  _125
REMARK   53  A    between atoms: _127  and  _129
REMARK   54  A    between atoms: _129  and  _130
REMARK   55  A    between atoms: _129  and  _132
REMARK   56  A    between atoms: _132  and  _133
REMARK   57  A    between atoms: _135  and  _137
REMARK   58  A    between atoms: _137  and  _138
REMARK   59  A    between atoms: _137  and  _140
REMARK   60  A    between atoms: _140  and  _141
REMARK   61  A    between atoms: _143  and  _145
REMARK   62  A    between atoms: _145  and  _146
REMARK   63  A    between atoms: _145  and  _148
REMARK   64  A    between atoms: _148  and  _149
REMARK   65  A    between atoms: _151  and  _153
REMARK   66  A    between atoms: _153  and  _154
REMARK   67  A    between atoms: _153  and  _156
REMARK   68  A    between atoms: _156  and  _157
REMARK   69  A    between atoms: _162  and  _164
REMARK   70  A    between atoms: _164  and  _165
REMARK   71  A    between atoms: _164  and  _167
REMARK   72  A    between atoms: _167  and  _168
REMARK   73  A    between atoms: _168  and  _169
REMARK   74  A    between atoms: _174  and  _176
REMARK   75  A    between atoms: _176  and  _177
REMARK   76  A    between atoms: _176  and  _179
REMARK   77  A    between atoms: _179  and  _180
REMARK   78  A    between atoms: _182  and  _184
REMARK   79  A    between atoms: _184  and  _185
REMARK   80  A    between atoms: _184  and  _187
REMARK   81  A    between atoms: _187  and  _188
REMARK   82  A    between atoms: _193  and  _194
REMARK   83  A    between atoms: _196  and  _198
REMARK   84  A    between atoms: _198  and  _199
REMARK   85  A    between atoms: _198  and  _201
REMARK   86  A    between atoms: _203  and  _205
REMARK   87  A    between atoms: _205  and  _206
REMARK   88  A    between atoms: _205  and  _208
REMARK   89  A    between atoms: _208  and  _209
REMARK   90  A    between atoms: _209  and  _210
REMARK   91  A    between atoms: _213  and  _215
REMARK   92  A    between atoms: _215  and  _216
REMARK   93  A    between atoms: _218  and  _220
REMARK   94  A    between atoms: _220  and  _221
REMARK   95  A    between atoms: _220  and  _223
REMARK   96  A    between atoms: _223  and  _224
REMARK   97  A    between atoms: _226  and  _228
REMARK   98  A    between atoms: _228  and  _229
REMARK   99  A    between atoms: _228  and  _231
REMARK  100  A    between atoms: _231  and  _232
REMARK  101  A    between atoms: _235  and  _237
REMARK  102  A    between atoms: _237  and  _238
REMARK  103  A    between atoms: _237  and  _240
REMARK  104  A    between atoms: _240  and  _241
REMARK  105  A    between atoms: _241  and  _242
REMARK  106  A    between atoms: _245  and  _247
REMARK  107  A    between atoms: _247  and  _248
REMARK  108  A    between atoms: _247  and  _250
REMARK  109  A    between atoms: _250  and  _251
REMARK  110  A    between atoms: _253  and  _255
REMARK  111  A    between atoms: _255  and  _256
REMARK  112  A    between atoms: _255  and  _258
REMARK  113  A    between atoms: _258  and  _259
REMARK  114  A    between atoms: _262  and  _264
REMARK  115  A    between atoms: _264  and  _265
REMARK  116  A    between atoms: _264  and  _267
REMARK  117  A    between atoms: _267  and  _268
REMARK  118  A    between atoms: _274  and  _276
REMARK  119  A    between atoms: _276  and  _277
REMARK  120  A    between atoms: _276  and  _279
REMARK  121  A    between atoms: _279  and  _280
REMARK  122  A    between atoms: _283  and  _285
REMARK  123  A    between atoms: _285  and  _286
REMARK  124  A    between atoms: _285  and  _288
REMARK  125  A    between atoms: _288  and  _289
REMARK  126  A    between atoms: _294  and  _295
REMARK  127  A    between atoms: _297  and  _299
REMARK  128  A    between atoms: _299  and  _300
REMARK  129  A    between atoms: _299  and  _302
REMARK  130  A    between atoms: _302  and  _303
REMARK  131  A    between atoms: _303  and  _304
REMARK  132  A    between atoms: _309  and  _311
REMARK  133  A    between atoms: _311  and  _312
REMARK  134  A    between atoms: _311  and  _314
REMARK  135  A    between atoms: _314  and  _315
REMARK  136  A    between atoms: _315  and  _316
REMARK  137  A    between atoms: _321  and  _323
REMARK  138  A    between atoms: _323  and  _324
REMARK  139  A    between atoms: _327  and  _329
REMARK  140  A    between atoms: _329  and  _330
REMARK  141  A    between atoms: _332  and  _334
REMARK  142  A    between atoms: _334  and  _335
REMARK  143  A    between atoms: _334  and  _337
REMARK  144  A    between atoms: _340  and  _342
REMARK  145  A    between atoms: _342  and  _343
REMARK  146  A    between atoms: _342  and  _345
REMARK  147  A    between atoms: _345  and  _346
REMARK  148  A    between atoms: _349  and  _351
REMARK  149  A    between atoms: _351  and  _352
REMARK  150  A    between atoms: _354  and  _356
REMARK  151  A    between atoms: _356  and  _357
REMARK  152  A    between atoms: _356  and  _359
REMARK  153  A    between atoms: _359  and  _360
REMARK  154  A    between atoms: _360  and  _361
REMARK  155  A    between atoms: _363  and  _365
REMARK  156  A    between atoms: _365  and  _366
REMARK  157  A    between atoms: _365  and  _368
REMARK  158  A    between atoms: _368  and  _369
REMARK  159  A    between atoms: _371  and  _373
REMARK  160  A    between atoms: _373  and  _374
REMARK  161  A    between atoms: _373  and  _376
REMARK  162  A    between atoms: _376  and  _377
REMARK  163  A    between atoms: _377  and  _378
REMARK  164  A    between atoms: _378  and  _379
REMARK  165  A    between atoms: _379  and  _380
REMARK  166  A    between atoms: _384  and  _386
REMARK  167  A    between atoms: _386  and  _387
REMARK  168  A    between atoms: _386  and  _389
REMARK  169  A    between atoms: _389  and  _390
REMARK  170  A    between atoms: _390  and  _391
REMARK  171  A    between atoms: _391  and  _392
REMARK  172  A    between atoms: _401  and  _403
REMARK  173  A    between atoms: _403  and  _404
REMARK  174  A    between atoms: _403  and  _406
REMARK  175  A    between atoms: _406  and  _407
REMARK  176  A    between atoms: _412  and  _413
REMARK  177  A    between atoms: _415  and  _417
REMARK  178  A    between atoms: _417  and  _418
REMARK  179  A    between atoms: _417  and  _420
REMARK  180  A    between atoms: _420  and  _421
REMARK  181  A    between atoms: _426  and  _427
REMARK  182  A    between atoms: _429  and  _431
REMARK  183  A    between atoms: _431  and  _432
REMARK  184  A    between atoms: _431  and  _434
REMARK  185  A    between atoms: _434  and  _435
REMARK  186  A    between atoms: _440  and  _441
REMARK  187  A    between atoms: _443  and  _445
REMARK  188  A    between atoms: _445  and  _446
REMARK  189  A    between atoms: _445  and  _448
REMARK  190  A    between atoms: _448  and  _449
REMARK  191  A    between atoms: _452  and  _454
REMARK  192  A    between atoms: _454  and  _455
REMARK  193  A    between atoms: _454  and  _457
REMARK  194  A    between atoms: _460  and  _462
REMARK  195  A    between atoms: _462  and  _463
REMARK  196  A    between atoms: _462  and  _465
REMARK  197  A    between atoms: _465  and  _466
REMARK  198  A    between atoms: _469  and  _471
REMARK  199  A    between atoms: _471  and  _472
REMARK  200  A    between atoms: _471  and  _474
REMARK  201  A    between atoms: _474  and  _475
REMARK  202  A    between atoms: _477  and  _479
REMARK  203  A    between atoms: _479  and  _480
REMARK  204  A    between atoms: _482  and  _484
REMARK  205  A    between atoms: _484  and  _485
REMARK  206  A    between atoms: _484  and  _487
REMARK  207  A    between atoms: _487  and  _488
REMARK  208  A    between atoms: _490  and  _492
REMARK  209  A    between atoms: _492  and  _493
REMARK  210  A    between atoms: _492  and  _495
REMARK  211  A    between atoms: _495  and  _496
REMARK  212  A    between atoms: _499  and  _501
REMARK  213  A    between atoms: _501  and  _502
REMARK  214  A    between atoms: _501  and  _504
REMARK  215  A    between atoms: _504  and  _505
REMARK  216  A    between atoms: _511  and  _513
REMARK  217  A    between atoms: _513  and  _514
REMARK  218  A    between atoms: _513  and  _516
REMARK  219  A    between atoms: _516  and  _517
REMARK  220  A    between atoms: _520  and  _522
REMARK  221  A    between atoms: _522  and  _523
REMARK  222  A    between atoms: _522  and  _525
REMARK  223  A    between atoms: _525  and  _526
REMARK  224  A    between atoms: _531  and  _533
REMARK  225  A    between atoms: _533  and  _534
REMARK  226  A    between atoms: _533  and  _536
REMARK  227  A    between atoms: _536  and  _537
REMARK  228  A    between atoms: _542  and  _543
REMARK  229  A    between atoms: _545  and  _547
REMARK  230  A    between atoms: _547  and  _548
REMARK  231  A    between atoms: _547  and  _550
REMARK  232  A    between atoms: _550  and  _551
REMARK  233  A    between atoms: _551  and  _552
REMARK  234  A    between atoms: _552  and  _553
REMARK  235  A    between atoms: _553  and  _554
REMARK  236  A    between atoms: _558  and  _560
REMARK  237  A    between atoms: _560  and  _561
REMARK  238  A    between atoms: _560  and  _563
REMARK  239  A    between atoms: _563  and  _564
REMARK  240  A    between atoms: _564  and  _565
REMARK  241  A    between atoms: _568  and  _570
REMARK  242  A    between atoms: _570  and  _571
REMARK  243  A    between atoms: _570  and  _573
REMARK  244  A    between atoms: _573  and  _574
REMARK  245  A    between atoms: _574  and  _575
REMARK  246  A    between atoms: _575  and  _576
REMARK  247  A    between atoms: _576  and  _577
REMARK  248  A    between atoms: _581  and  _583
REMARK  249  A    between atoms: _583  and  _584
REMARK  250  A    between atoms: _583  and  _586
REMARK  251  A    between atoms: _589  and  _591
REMARK  252  A    between atoms: _591  and  _592
REMARK  253  A    between atoms: _591  and  _594
REMARK  254  A    between atoms: _594  and  _595
REMARK  255  A    between atoms: _600  and  _602
REMARK  256  A    between atoms: _602  and  _603
REMARK  257  A    between atoms: _602  and  _605
REMARK  258  A    between atoms: _605  and  _606
REMARK  259  A    between atoms: _606  and  _607
REMARK  260  A    between atoms: _607  and  _608
REMARK  261  A    between atoms: _608  and  _609
REMARK  262  A    between atoms: _614  and  _615
REMARK  263  A    between atoms: _620  and  _622
REMARK  264  A    between atoms: _622  and  _623
REMARK  265  A    between atoms: _622  and  _625
REMARK  266  A    between atoms: _625  and  _626
REMARK  267  A    between atoms: _629  and  _631
REMARK  268  A    between atoms: _631  and  _632
REMARK  269  A    between atoms: _634  and  _636
REMARK  270  A    between atoms: _636  and  _637
REMARK  271  A    between atoms: _636  and  _639
REMARK  272  A    between atoms: _639  and  _640
REMARK                            x       y       z     vdW  Elec       q    Type
REMARK                         _______ _______ _______ _____ _____    ______ ____
ROOT
ATOM      1  C   LEU A   3       1.933  88.832  38.474  0.00  0.00    +0.241 C 
ATOM      2  O   LEU A   3       2.755  89.422  39.162  0.00  0.00    -0.273 OA
ATOM      3  N   GLY A   4       0.913  88.153  38.981  0.00  0.00    -0.295 N 
ATOM      4  H   GLY A   4       0.211  87.738  38.335  0.00  0.00    +0.150 HD
ENDROOT
BRANCH   3   5
ATOM      5  CA  GLY A   4       0.748  87.972  40.411  0.00  0.00    +0.176 C 
BRANCH   5   6
ATOM      6  C   GLY A   4       1.789  87.024  40.994  0.00  0.00    +0.243 C 
ATOM      7  N   MET A   5       2.342  87.377  42.157  0.00  0.00    -0.297 N 
ATOM      8  H   MET A   5       1.986  88.218  42.655  0.00  0.00    +0.150 HD
ATOM      9  O   GLY A   4       2.088  85.988  40.391  0.00  0.00    -0.273 OA
BRANCH   7  10
ATOM     10  CA  MET A   5       3.430  86.612  42.743  0.00  0.00    +0.149 C 
BRANCH  10  11
ATOM     11  C   MET A   5       3.068  85.927  44.058  0.00  0.00    +0.241 C 
ATOM     12  O   MET A   5       3.942  85.399  44.754  0.00  0.00    -0.273 OA
ATOM     13  N   SER A   6       1.787  85.888  44.397  0.00  0.00    -0.296 N 
ATOM     14  H   SER A   6       1.055  86.276  43.768  0.00  0.00    +0.150 HD
BRANCH  13  15
ATOM     15  CA  SER A   6       1.434  85.285  45.679  0.00  0.00    +0.166 C 
BRANCH  15  16
ATOM     16  CB  SER A   6       1.279  83.755  45.550  0.00  0.00    +0.229 C 
ATOM     17  OG  SER A   6       1.443  83.200  44.472  0.00  0.00    -0.286 OA
ENDBRANCH  15  16
BRANCH  15  18
ATOM     18  C   SER A   6       0.166  85.933  46.243  0.00  0.00    +0.165 C 
BRANCH  18  19
ATOM     19  O   SER A   6      -0.949  85.655  45.426  0.00  0.00    -0.380 OA
ATOM     20  H   SER A   6      -1.754  86.084  45.811  0.00  0.00    +0.211 HD
ENDBRANCH  18  19
ENDBRANCH  15  18
ENDBRANCH  13  15
ENDBRANCH  10  11
BRANCH  10  21
ATOM     21  CB  MET A   5       4.634  87.531  42.952  0.00  0.00    +0.041 C 
BRANCH  21  22
ATOM     22  CG  MET A   5       5.195  88.081  41.642  0.00  0.00    +0.060 C 
BRANCH  22  23
ATOM     23  SD  MET A   5       5.895  86.803  40.566  0.00  0.00    -0.139 S 
ATOM     24  CE  MET A   5       7.422  86.491  41.417  0.00  0.00    +0.069 C 
ENDBRANCH  22  23
ENDBRANCH  21  22
ENDBRANCH  10  21
ENDBRANCH   7  10
ENDBRANCH   5   6
ENDBRANCH   3   5
BRANCH   1  25
ATOM     25  CA  LEU A   3       2.027  88.852  36.970  0.00  0.00    +0.149 C 
BRANCH  25  27
ATOM     26  C   VAL A   2       0.322  90.092  35.764  0.00  0.00    +0.241 C 
ATOM     27  N   LEU A   3       1.458  90.086  36.452  0.00  0.00    -0.297 N 
ATOM     28  H   LEU A   3       1.952  90.985  36.624  0.00  0.00    +0.150 HD
ATOM     29  O   VAL A   2      -0.290  89.065  35.508  0.00  0.00    -0.273 OA
BRANCH  26  30
ATOM     30  CA  VAL A   2      -0.205  91.459  35.296  0.00  0.00    +0.148 C 
BRANCH  30  32
ATOM     31  C   GLY A   1      -0.114  92.351  33.009  0.00  0.00    +0.240 C 
ATOM     32  N   VAL A   2      -0.567  91.449  33.880  0.00  0.00    -0.297 N 
ATOM     33  H   VAL A   2      -1.207  90.705  33.536  0.00  0.00    +0.150 HD
ATOM     34  O   GLY A   1       0.723  93.210  33.294  0.00  0.00    -0.274 OA
BRANCH  31  35
ATOM     35  CA  GLY A   1      -0.673  92.257  31.605  0.00  0.00    +0.169 C 
BRANCH  35  36
ATOM     36  N   GLY A   1       0.097  92.963  30.594  0.00  0.00    -0.236 NA
ATOM     37  H   GLY A   1       1.129  93.034  30.697  0.00  0.00    +0.142 HD
ENDBRANCH  35  36
ENDBRANCH  31  35
ENDBRANCH  30  32
BRANCH  30  38
ATOM     38  CB  VAL A   2      -1.419  91.860  36.175  0.00  0.00    +0.027 C 
ATOM     39  CG2 VAL A   2      -1.080  91.756  37.641  0.00  0.00    +0.002 C 
ATOM     40  CG1 VAL A   2      -1.904  93.288  35.835  0.00  0.00    +0.002 C 
ENDBRANCH  30  38
ENDBRANCH  26  30
ENDBRANCH  25  27
BRANCH  25  41
ATOM     41  CB  LEU A   3       3.482  88.684  36.517  0.00  0.00    +0.029 C 
BRANCH  41  42
ATOM     42  CG  LEU A   3       4.307  87.456  36.954  0.00  0.00    +0.002 C 
ATOM     43  CD2 LEU A   3       3.592  86.151  36.617  0.00  0.00    +0.000 C 
ATOM     44  CD1 LEU A   3       5.685  87.456  36.276  0.00  0.00    +0.000 C 
ENDBRANCH  41  42
ENDBRANCH  25  41
ENDBRANCH   1  25
TORSDOF 20
REMARK  Name = ../refined-set-2016/4zl4/4zl4_pocket.pdb
REMARK  272 active torsions:
REMARK  status: ('A' for Active; 'I' for Inactive)
REMARK    1  A    between atoms: _1  and  _3
REMARK    2  A    between atoms: _3  and  _4
REMARK    3  A    between atoms: _3  and  _6
REMARK    4  A    between atoms: _6  and  _7
REMARK    5  A    between atoms: _10  and  _12
REMARK    6  A    between atoms: _12  and  _13
REMARK    7  A    between atoms: _12  and  _15
REMARK    8  A    between atoms: _15  and  _16
REMARK    9  A    between atoms: _19  and  _21
REMARK   10  A    between atoms: _21  and  _22
REMARK   11  A    between atoms: _21  and  _24
REMARK   12  A    between atoms: _24  and  _25
REMARK   13  A    between atoms: _28  and  _30
REMARK   14  A    between atoms: _30  and  _31
REMARK   15  A    between atoms: _30  and  _33
REMARK   16  A    between atoms: _33  and  _34
REMARK   17  A    between atoms: _34  and  _35
REMARK   18  A    between atoms: _38  and  _40
REMARK   19  A    between atoms: _40  and  _41
REMARK   20  A    between atoms: _40  and  _43
REMARK   21  A    between atoms: _43  and  _44
REMARK   22  A    between atoms: _49  and  _50
REMARK   23  A    between atoms: _52  and  _54
REMARK   24  A    between atoms: _54  and  _55
REMARK   25  A    between atoms: _58  and  _60
REMARK   26  A    between atoms: _60  and  _61
REMARK   27  A    between atoms: _60  and  _63
REMARK   28  A    between atoms: _63  and  _64
REMARK   29  A    between atoms: _69  and  _70
REMARK   30  A    between atoms: _72  and  _74
REMARK   31  A    between atoms: _74  and  _75
REMARK   32  A    between atoms: _74  and  _77
REMARK   33  A    between atoms: _77  and  _78
REMARK   34  A    between atoms: _83  and  _84
REMARK   35  A    between atoms: _86  and  _88
REMARK   36  A    between atoms: _88  and  _89
REMARK   37  A    between atoms: _88  and  _91
REMARK   38  A    between atoms: _91  and  _92
REMARK   39  A    between atoms: _95  and  _97
REMARK   40  A    between atoms: _97  and  _98
REMARK   41  A    between atoms: _97  and  _100
REMARK   42  A    between atoms: _100  and  _101
REMARK   43  A    between atoms: _104  and  _106
REMARK   44  A    between atoms: _106  and  _107
REMARK   45  A    between atoms: _106  and  _109
REMARK   46  A    between atoms: _109  and  _110
REMARK   47  A    between atoms: _113  and  _115
REMARK   48  A    between atoms: _115  and  _116
REMARK   49  A    between atoms: _115  and  _118
REMARK   50  A    between atoms: _118  and  _119
REMARK   51  A    between atoms: _122  and  _124
REMARK   52  A    between atoms: _124  and  _125
REMARK   53  A    between atoms: _127  and  _129
REMARK   54  A    between atoms: _129  and  _130
REMARK   55  A    between atoms: _129  and  _132
REMARK   56  A    between atoms: _132  and  _133
REMARK   57  A    between atoms: _135  and  _137
REMARK   58  A    between atoms: _137  and  _138
REMARK   59  A    between atoms: _137  and  _140
REMARK   60  A    between atoms: _140  and  _141
REMARK   61  A    between atoms: _143  and  _145
REMARK   62  A    between atoms: _145  and  _146
REMARK   63  A    between atoms: _145  and  _148
REMARK   64  A    between atoms: _148  and  _149
REMARK   65  A    between atoms: _151  and  _153
REMARK   66  A    between atoms: _153  and  _154
REMARK   67  A    between atoms: _153  and  _156
REMARK   68  A    between atoms: _156  and  _157
REMARK   69  A    between atoms: _162  and  _164
REMARK   70  A    between atoms: _164  and  _165
REMARK   71  A    between atoms: _164  and  _167
REMARK   72  A    between atoms: _167  and  _168
REMARK   73  A    between atoms: _168  and  _169
REMARK   74  A    between atoms: _174  and  _176
REMARK   75  A    between atoms: _176  and  _177
REMARK   76  A    between atoms: _176  and  _179
REMARK   77  A    between atoms: _179  and  _180
REMARK   78  A    between atoms: _182  and  _184
REMARK   79  A    between atoms: _184  and  _185
REMARK   80  A    between atoms: _184  and  _187
REMARK   81  A    between atoms: _187  and  _188
REMARK   82  A    between atoms: _193  and  _194
REMARK   83  A    between atoms: _196  and  _198
REMARK   84  A    between atoms: _198  and  _199
REMARK   85  A    between atoms: _198  and  _201
REMARK   86  A    between atoms: _203  and  _205
REMARK   87  A    between atoms: _205  and  _206
REMARK   88  A    between atoms: _205  and  _208
REMARK   89  A    between atoms: _208  and  _209
REMARK   90  A    between atoms: _209  and  _210
REMARK   91  A    between atoms: _213  and  _215
REMARK   92  A    between atoms: _215  and  _216
REMARK   93  A    between atoms: _218  and  _220
REMARK   94  A    between atoms: _220  and  _221
REMARK   95  A    between atoms: _220  and  _223
REMARK   96  A    between atoms: _223  and  _224
REMARK   97  A    between atoms: _226  and  _228
REMARK   98  A    between atoms: _228  and  _229
REMARK   99  A    between atoms: _228  and  _231
REMARK  100  A    between atoms: _231  and  _232
REMARK  101  A    between atoms: _235  and  _237
REMARK  102  A    between atoms: _237  and  _238
REMARK  103  A    between atoms: _237  and  _240
REMARK  104  A    between atoms: _240  and  _241
REMARK  105  A    between atoms: _241  and  _242
REMARK  106  A    between atoms: _245  and  _247
REMARK  107  A    between atoms: _247  and  _248
REMARK  108  A    between atoms: _247  and  _250
REMARK  109  A    between atoms: _250  and  _251
REMARK  110  A    between atoms: _253  and  _255
REMARK  111  A    between atoms: _255  and  _256
REMARK  112  A    between atoms: _255  and  _258
REMARK  113  A    between atoms: _258  and  _259
REMARK  114  A    between atoms: _262  and  _264
REMARK  115  A    between atoms: _264  and  _265
REMARK  116  A    between atoms: _264  and  _267
REMARK  117  A    between atoms: _267  and  _268
REMARK  118  A    between atoms: _274  and  _276
REMARK  119  A    between atoms: _276  and  _277
REMARK  120  A    between atoms: _276  and  _279
REMARK  121  A    between atoms: _279  and  _280
REMARK  122  A    between atoms: _283  and  _285
REMARK  123  A    between atoms: _285  and  _286
REMARK  124  A    between atoms: _285  and  _288
REMARK  125  A    between atoms: _288  and  _289
REMARK  126  A    between atoms: _294  and  _295
REMARK  127  A    between atoms: _297  and  _299
REMARK  128  A    between atoms: _299  and  _300
REMARK  129  A    between atoms: _299  and  _302
REMARK  130  A    between atoms: _302  and  _303
REMARK  131  A    between atoms: _303  and  _304
REMARK  132  A    between atoms: _309  and  _311
REMARK  133  A    between atoms: _311  and  _312
REMARK  134  A    between atoms: _311  and  _314
REMARK  135  A    between atoms: _314  and  _315
REMARK  136  A    between atoms: _315  and  _316
REMARK  137  A    between atoms: _321  and  _323
REMARK  138  A    between atoms: _323  and  _324
REMARK  139  A    between atoms: _327  and  _329
REMARK  140  A    between atoms: _329  and  _330
REMARK  141  A    between atoms: _332  and  _334
REMARK  142  A    between atoms: _334  and  _335
REMARK  143  A    between atoms: _334  and  _337
REMARK  144  A    between atoms: _340  and  _342
REMARK  145  A    between atoms: _342  and  _343
REMARK  146  A    between atoms: _342  and  _345
REMARK  147  A    between atoms: _345  and  _346
REMARK  148  A    between atoms: _349  and  _351
REMARK  149  A    between atoms: _351  and  _352
REMARK  150  A    between atoms: _354  and  _356
REMARK  151  A    between atoms: _356  and  _357
REMARK  152  A    between atoms: _356  and  _359
REMARK  153  A    between atoms: _359  and  _360
REMARK  154  A    between atoms: _360  and  _361
REMARK  155  A    between atoms: _363  and  _365
REMARK  156  A    between atoms: _365  and  _366
REMARK  157  A    between atoms: _365  and  _368
REMARK  158  A    between atoms: _368  and  _369
REMARK  159  A    between atoms: _371  and  _373
REMARK  160  A    between atoms: _373  and  _374
REMARK  161  A    between atoms: _373  and  _376
REMARK  162  A    between atoms: _376  and  _377
REMARK  163  A    between atoms: _377  and  _378
REMARK  164  A    between atoms: _378  and  _379
REMARK  165  A    between atoms: _379  and  _380
REMARK  166  A    between atoms: _384  and  _386
REMARK  167  A    between atoms: _386  and  _387
REMARK  168  A    between atoms: _386  and  _389
REMARK  169  A    between atoms: _389  and  _390
REMARK  170  A    between atoms: _390  and  _391
REMARK  171  A    between atoms: _391  and  _392
REMARK  172  A    between atoms: _401  and  _403
REMARK  173  A    between atoms: _403  and  _404
REMARK  174  A    between atoms: _403  and  _406
REMARK  175  A    between atoms: _406  and  _407
REMARK  176  A    between atoms: _412  and  _413
REMARK  177  A    between atoms: _415  and  _417
REMARK  178  A    between atoms: _417  and  _418
REMARK  179  A    between atoms: _417  and  _420
REMARK  180  A    between atoms: _420  and  _421
REMARK  181  A    between atoms: _426  and  _427
REMARK  182  A    between atoms: _429  and  _431
REMARK  183  A    between atoms: _431  and  _432
REMARK  184  A    between atoms: _431  and  _434
REMARK  185  A    between atoms: _434  and  _435
REMARK  186  A    between atoms: _440  and  _441
REMARK  187  A    between atoms: _443  and  _445
REMARK  188  A    between atoms: _445  and  _446
REMARK  189  A    between atoms: _445  and  _448
REMARK  190  A    between atoms: _448  and  _449
REMARK  191  A    between atoms: _452  and  _454
REMARK  192  A    between atoms: _454  and  _455
REMARK  193  A    between atoms: _454  and  _457
REMARK  194  A    between atoms: _460  and  _462
REMARK  195  A    between atoms: _462  and  _463
REMARK  196  A    between atoms: _462  and  _465
REMARK  197  A    between atoms: _465  and  _466
REMARK  198  A    between atoms: _469  and  _471
REMARK  199  A    between atoms: _471  and  _472
REMARK  200  A    between atoms: _471  and  _474
REMARK  201  A    between atoms: _474  and  _475
REMARK  202  A    between atoms: _477  and  _479
REMARK  203  A    between atoms: _479  and  _480
REMARK  204  A    between atoms: _482  and  _484
REMARK  205  A    between atoms: _484  and  _485
REMARK  206  A    between atoms: _484  and  _487
REMARK  207  A    between atoms: _487  and  _488
REMARK  208  A    between atoms: _490  and  _492
REMARK  209  A    between atoms: _492  and  _493
REMARK  210  A    between atoms: _492  and  _495
REMARK  211  A    between atoms: _495  and  _496
REMARK  212  A    between atoms: _499  and  _501
REMARK  213  A    between atoms: _501  and  _502
REMARK  214  A    between atoms: _501  and  _504
REMARK  215  A    between atoms: _504  and  _505
REMARK  216  A    between atoms: _511  and  _513
REMARK  217  A    between atoms: _513  and  _514
REMARK  218  A    between atoms: _513  and  _516
REMARK  219  A    between atoms: _516  and  _517
REMARK  220  A    between atoms: _520  and  _522
REMARK  221  A    between atoms: _522  and  _523
REMARK  222  A    between atoms: _522  and  _525
REMARK  223  A    between atoms: _525  and  _526
REMARK  224  A    between atoms: _531  and  _533
REMARK  225  A    between atoms: _533  and  _534
REMARK  226  A    between atoms: _533  and  _536
REMARK  227  A    between atoms: _536  and  _537
REMARK  228  A    between atoms: _542  and  _543
REMARK  229  A    between atoms: _545  and  _547
REMARK  230  A    between atoms: _547  and  _548
REMARK  231  A    between atoms: _547  and  _550
REMARK  232  A    between atoms: _550  and  _551
REMARK  233  A    between atoms: _551  and  _552
REMARK  234  A    between atoms: _552  and  _553
REMARK  235  A    between atoms: _553  and  _554
REMARK  236  A    between atoms: _558  and  _560
REMARK  237  A    between atoms: _560  and  _561
REMARK  238  A    between atoms: _560  and  _563
REMARK  239  A    between atoms: _563  and  _564
REMARK  240  A    between atoms: _564  and  _565
REMARK  241  A    between atoms: _568  and  _570
REMARK  242  A    between atoms: _570  and  _571
REMARK  243  A    between atoms: _570  and  _573
REMARK  244  A    between atoms: _573  and  _574
REMARK  245  A    between atoms: _574  and  _575
REMARK  246  A    between atoms: _575  and  _576
REMARK  247  A    between atoms: _576  and  _577
REMARK  248  A    between atoms: _581  and  _583
REMARK  249  A    between atoms: _583  and  _584
REMARK  250  A    between atoms: _583  and  _586
REMARK  251  A    between atoms: _589  and  _591
REMARK  252  A    between atoms: _591  and  _592
REMARK  253  A    between atoms: _591  and  _594
REMARK  254  A    between atoms: _594  and  _595
REMARK  255  A    between atoms: _600  and  _602
REMARK  256  A    between atoms: _602  and  _603
REMARK  257  A    between atoms: _602  and  _605
REMARK  258  A    between atoms: _605  and  _606
REMARK  259  A    between atoms: _606  and  _607
REMARK  260  A    between atoms: _607  and  _608
REMARK  261  A    between atoms: _608  and  _609
REMARK  262  A    between atoms: _614  and  _615
REMARK  263  A    between atoms: _620  and  _622
REMARK  264  A    between atoms: _622  and  _623
REMARK  265  A    between atoms: _622  and  _625
REMARK  266  A    between atoms: _625  and  _626
REMARK  267  A    between atoms: _629  and  _631
REMARK  268  A    between atoms: _631  and  _632
REMARK  269  A    between atoms: _634  and  _636
REMARK  270  A    between atoms: _636  and  _637
REMARK  271  A    between atoms: _636  and  _639
REMARK  272  A    between atoms: _639  and  _640
REMARK                            x       y       z     vdW  Elec       q    Type
REMARK                         _______ _______ _______ _____ _____    ______ ____
ROOT
ATOM      1  CG  LYS A   1      -5.261  79.866  48.603  0.00  0.00    -0.000 C 
ENDROOT
BRANCH   1   2
ATOM      2  CB  LYS A   1      -5.350  78.443  48.110  0.00  0.00    +0.025 C 
BRANCH   2   3
ATOM      3  CA  LYS A   1      -4.010  77.715  47.954  0.00  0.00    +0.133 C 
BRANCH   3   4
ATOM      4  N   LYS A   1      -3.201  78.272  46.876  0.00  0.00    -0.239 NA
ATOM      5  H   LYS A   1      -3.668  78.654  46.029  0.00  0.00    +0.142 HD
ENDBRANCH   3   4
BRANCH   3   6
ATOM      6  C   LYS A   1      -4.239  76.242  47.665  0.00  0.00    +0.224 C 
ATOM      7  O   LYS A   1      -4.195  75.833  46.508  0.00  0.00    -0.287 OA
ENDBRANCH   3   6
ENDBRANCH   2   3
ENDBRANCH   1   2
BRANCH   1   8
ATOM      8  CD  LYS A   1      -6.623  80.511  48.486  0.00  0.00    -0.024 C 
BRANCH   8   9
ATOM      9  CE  LYS A   1      -6.613  81.951  48.947  0.00  0.00    -0.086 C 
BRANCH   9  10
ATOM     10  NZ  LYS A   1      -5.773  82.809  48.043  0.00  0.00    +0.380 N 
ATOM     11  HZ1 LYS A   1      -5.787  83.790  48.387  0.00  0.00    -0.089 HD
ATOM     12  HZ2 LYS A   1      -4.795  82.455  48.041  0.00  0.00    -0.089 HD
ATOM     13  HZ3 LYS A   1      -6.157  82.773  47.077  0.00  0.00    -0.089 HD
ENDBRANCH   9  10
ENDBRANCH   8   9
ENDBRANCH   1   8
TORSDOF 7
REMARK  Name = ../refined-set-2016/4zl4/4zl4_pocket.pdb
REMARK  272 active torsions:
REMARK  status: ('A' for Active; 'I' for Inactive)
REMARK    1  A    between atoms: _1  and  _3
REMARK    2  A    between atoms: _3  and  _4
REMARK    3  A    between atoms: _3  and  _6
REMARK    4  A    between atoms: _6  and  _7
REMARK    5  A    between atoms: _10  and  _12
REMARK    6  A    between atoms: _12  and  _13
REMARK    7  A    between atoms: _12  and  _15
REMARK    8  A    between atoms: _15  and  _16
REMARK    9  A    between atoms: _19  and  _21
REMARK   10  A    between atoms: _21  and  _22
REMARK   11  A    between atoms: _21  and  _24
REMARK   12  A    between atoms: _24  and  _25
REMARK   13  A    between atoms: _28  and  _30
REMARK   14  A    between atoms: _30  and  _31
REMARK   15  A    between atoms: _30  and  _33
REMARK   16  A    between atoms: _33  and  _34
REMARK   17  A    between atoms: _34  and  _35
REMARK   18  A    between atoms: _38  and  _40
REMARK   19  A    between atoms: _40  and  _41
REMARK   20  A    between atoms: _40  and  _43
REMARK   21  A    between atoms: _43  and  _44
REMARK   22  A    between atoms: _49  and  _50
REMARK   23  A    between atoms: _52  and  _54
REMARK   24  A    between atoms: _54  and  _55
REMARK   25  A    between atoms: _58  and  _60
REMARK   26  A    between atoms: _60  and  _61
REMARK   27  A    between atoms: _60  and  _63
REMARK   28  A    between atoms: _63  and  _64
REMARK   29  A    between atoms: _69  and  _70
REMARK   30  A    between atoms: _72  and  _74
REMARK   31  A    between atoms: _74  and  _75
REMARK   32  A    between atoms: _74  and  _77
REMARK   33  A    between atoms: _77  and  _78
REMARK   34  A    between atoms: _83  and  _84
REMARK   35  A    between atoms: _86  and  _88
REMARK   36  A    between atoms: _88  and  _89
REMARK   37  A    between atoms: _88  and  _91
REMARK   38  A    between atoms: _91  and  _92
REMARK   39  A    between atoms: _95  and  _97
REMARK   40  A    between atoms: _97  and  _98
REMARK   41  A    between atoms: _97  and  _100
REMARK   42  A    between atoms: _100  and  _101
REMARK   43  A    between atoms: _104  and  _106
REMARK   44  A    between atoms: _106  and  _107
REMARK   45  A    between atoms: _106  and  _109
REMARK   46  A    between atoms: _109  and  _110
REMARK   47  A    between atoms: _113  and  _115
REMARK   48  A    between atoms: _115  and  _116
REMARK   49  A    between atoms: _115  and  _118
REMARK   50  A    between atoms: _118  and  _119
REMARK   51  A    between atoms: _122  and  _124
REMARK   52  A    between atoms: _124  and  _125
REMARK   53  A    between atoms: _127  and  _129
REMARK   54  A    between atoms: _129  and  _130
REMARK   55  A    between atoms: _129  and  _132
REMARK   56  A    between atoms: _132  and  _133
REMARK   57  A    between atoms: _135  and  _137
REMARK   58  A    between atoms: _137  and  _138
REMARK   59  A    between atoms: _137  and  _140
REMARK   60  A    between atoms: _140  and  _141
REMARK   61  A    between atoms: _143  and  _145
REMARK   62  A    between atoms: _145  and  _146
REMARK   63  A    between atoms: _145  and  _148
REMARK   64  A    between atoms: _148  and  _149
REMARK   65  A    between atoms: _151  and  _153
REMARK   66  A    between atoms: _153  and  _154
REMARK   67  A    between atoms: _153  and  _156
REMARK   68  A    between atoms: _156  and  _157
REMARK   69  A    between atoms: _162  and  _164
REMARK   70  A    between atoms: _164  and  _165
REMARK   71  A    between atoms: _164  and  _167
REMARK   72  A    between atoms: _167  and  _168
REMARK   73  A    between atoms: _168  and  _169
REMARK   74  A    between atoms: _174  and  _176
REMARK   75  A    between atoms: _176  and  _177
REMARK   76  A    between atoms: _176  and  _179
REMARK   77  A    between atoms: _179  and  _180
REMARK   78  A    between atoms: _182  and  _184
REMARK   79  A    between atoms: _184  and  _185
REMARK   80  A    between atoms: _184  and  _187
REMARK   81  A    between atoms: _187  and  _188
REMARK   82  A    between atoms: _193  and  _194
REMARK   83  A    between atoms: _196  and  _198
REMARK   84  A    between atoms: _198  and  _199
REMARK   85  A    between atoms: _198  and  _201
REMARK   86  A    between atoms: _203  and  _205
REMARK   87  A    between atoms: _205  and  _206
REMARK   88  A    between atoms: _205  and  _208
REMARK   89  A    between atoms: _208  and  _209
REMARK   90  A    between atoms: _209  and  _210
REMARK   91  A    between atoms: _213  and  _215
REMARK   92  A    between atoms: _215  and  _216
REMARK   93  A    between atoms: _218  and  _220
REMARK   94  A    between atoms: _220  and  _221
REMARK   95  A    between atoms: _220  and  _223
REMARK   96  A    between atoms: _223  and  _224
REMARK   97  A    between atoms: _226  and  _228
REMARK   98  A    between atoms: _228  and  _229
REMARK   99  A    between atoms: _228  and  _231
REMARK  100  A    between atoms: _231  and  _232
REMARK  101  A    between atoms: _235  and  _237
REMARK  102  A    between atoms: _237  and  _238
REMARK  103  A    between atoms: _237  and  _240
REMARK  104  A    between atoms: _240  and  _241
REMARK  105  A    between atoms: _241  and  _242
REMARK  106  A    between atoms: _245  and  _247
REMARK  107  A    between atoms: _247  and  _248
REMARK  108  A    between atoms: _247  and  _250
REMARK  109  A    between atoms: _250  and  _251
REMARK  110  A    between atoms: _253  and  _255
REMARK  111  A    between atoms: _255  and  _256
REMARK  112  A    between atoms: _255  and  _258
REMARK  113  A    between atoms: _258  and  _259
REMARK  114  A    between atoms: _262  and  _264
REMARK  115  A    between atoms: _264  and  _265
REMARK  116  A    between atoms: _264  and  _267
REMARK  117  A    between atoms: _267  and  _268
REMARK  118  A    between atoms: _274  and  _276
REMARK  119  A    between atoms: _276  and  _277
REMARK  120  A    between atoms: _276  and  _279
REMARK  121  A    between atoms: _279  and  _280
REMARK  122  A    between atoms: _283  and  _285
REMARK  123  A    between atoms: _285  and  _286
REMARK  124  A    between atoms: _285  and  _288
REMARK  125  A    between atoms: _288  and  _289
REMARK  126  A    between atoms: _294  and  _295
REMARK  127  A    between atoms: _297  and  _299
REMARK  128  A    between atoms: _299  and  _300
REMARK  129  A    between atoms: _299  and  _302
REMARK  130  A    between atoms: _302  and  _303
REMARK  131  A    between atoms: _303  and  _304
REMARK  132  A    between atoms: _309  and  _311
REMARK  133  A    between atoms: _311  and  _312
REMARK  134  A    between atoms: _311  and  _314
REMARK  135  A    between atoms: _314  and  _315
REMARK  136  A    between atoms: _315  and  _316
REMARK  137  A    between atoms: _321  and  _323
REMARK  138  A    between atoms: _323  and  _324
REMARK  139  A    between atoms: _327  and  _329
REMARK  140  A    between atoms: _329  and  _330
REMARK  141  A    between atoms: _332  and  _334
REMARK  142  A    between atoms: _334  and  _335
REMARK  143  A    between atoms: _334  and  _337
REMARK  144  A    between atoms: _340  and  _342
REMARK  145  A    between atoms: _342  and  _343
REMARK  146  A    between atoms: _342  and  _345
REMARK  147  A    between atoms: _345  and  _346
REMARK  148  A    between atoms: _349  and  _351
REMARK  149  A    between atoms: _351  and  _352
REMARK  150  A    between atoms: _354  and  _356
REMARK  151  A    between atoms: _356  and  _357
REMARK  152  A    between atoms: _356  and  _359
REMARK  153  A    between atoms: _359  and  _360
REMARK  154  A    between atoms: _360  and  _361
REMARK  155  A    between atoms: _363  and  _365
REMARK  156  A    between atoms: _365  and  _366
REMARK  157  A    between atoms: _365  and  _368
REMARK  158  A    between atoms: _368  and  _369
REMARK  159  A    between atoms: _371  and  _373
REMARK  160  A    between atoms: _373  and  _374
REMARK  161  A    between atoms: _373  and  _376
REMARK  162  A    between atoms: _376  and  _377
REMARK  163  A    between atoms: _377  and  _378
REMARK  164  A    between atoms: _378  and  _379
REMARK  165  A    between atoms: _379  and  _380
REMARK  166  A    between atoms: _384  and  _386
REMARK  167  A    between atoms: _386  and  _387
REMARK  168  A    between atoms: _386  and  _389
REMARK  169  A    between atoms: _389  and  _390
REMARK  170  A    between atoms: _390  and  _391
REMARK  171  A    between atoms: _391  and  _392
REMARK  172  A    between atoms: _401  and  _403
REMARK  173  A    between atoms: _403  and  _404
REMARK  174  A    between atoms: _403  and  _406
REMARK  175  A    between atoms: _406  and  _407
REMARK  176  A    between atoms: _412  and  _413
REMARK  177  A    between atoms: _415  and  _417
REMARK  178  A    between atoms: _417  and  _418
REMARK  179  A    between atoms: _417  and  _420
REMARK  180  A    between atoms: _420  and  _421
REMARK  181  A    between atoms: _426  and  _427
REMARK  182  A    between atoms: _429  and  _431
REMARK  183  A    between atoms: _431  and  _432
REMARK  184  A    between atoms: _431  and  _434
REMARK  185  A    between atoms: _434  and  _435
REMARK  186  A    between atoms: _440  and  _441
REMARK  187  A    between atoms: _443  and  _445
REMARK  188  A    between atoms: _445  and  _446
REMARK  189  A    between atoms: _445  and  _448
REMARK  190  A    between atoms: _448  and  _449
REMARK  191  A    between atoms: _452  and  _454
REMARK  192  A    between atoms: _454  and  _455
REMARK  193  A    between atoms: _454  and  _457
REMARK  194  A    between atoms: _460  and  _462
REMARK  195  A    between atoms: _462  and  _463
REMARK  196  A    between atoms: _462  and  _465
REMARK  197  A    between atoms: _465  and  _466
REMARK  198  A    between atoms: _469  and  _471
REMARK  199  A    between atoms: _471  and  _472
REMARK  200  A    between atoms: _471  and  _474
REMARK  201  A    between atoms: _474  and  _475
REMARK  202  A    between atoms: _477  and  _479
REMARK  203  A    between atoms: _479  and  _480
REMARK  204  A    between atoms: _482  and  _484
REMARK  205  A    between atoms: _484  and  _485
REMARK  206  A    between atoms: _484  and  _487
REMARK  207  A    between atoms: _487  and  _488
REMARK  208  A    between atoms: _490  and  _492
REMARK  209  A    between atoms: _492  and  _493
REMARK  210  A    between atoms: _492  and  _495
REMARK  211  A    between atoms: _495  and  _496
REMARK  212  A    between atoms: _499  and  _501
REMARK  213  A    between atoms: _501  and  _502
REMARK  214  A    between atoms: _501  and  _504
REMARK  215  A    between atoms: _504  and  _505
REMARK  216  A    between atoms: _511  and  _513
REMARK  217  A    between atoms: _513  and  _514
REMARK  218  A    between atoms: _513  and  _516
REMARK  219  A    between atoms: _516  and  _517
REMARK  220  A    between atoms: _520  and  _522
REMARK  221  A    between atoms: _522  and  _523
REMARK  222  A    between atoms: _522  and  _525
REMARK  223  A    between atoms: _525  and  _526
REMARK  224  A    between atoms: _531  and  _533
REMARK  225  A    between atoms: _533  and  _534
REMARK  226  A    between atoms: _533  and  _536
REMARK  227  A    between atoms: _536  and  _537
REMARK  228  A    between atoms: _542  and  _543
REMARK  229  A    between atoms: _545  and  _547
REMARK  230  A    between atoms: _547  and  _548
REMARK  231  A    between atoms: _547  and  _550
REMARK  232  A    between atoms: _550  and  _551
REMARK  233  A    between atoms: _551  and  _552
REMARK  234  A    between atoms: _552  and  _553
REMARK  235  A    between atoms: _553  and  _554
REMARK  236  A    between atoms: _558  and  _560
REMARK  237  A    between atoms: _560  and  _561
REMARK  238  A    between atoms: _560  and  _563
REMARK  239  A    between atoms: _563  and  _564
REMARK  240  A    between atoms: _564  and  _565
REMARK  241  A    between atoms: _568  and  _570
REMARK  242  A    between atoms: _570  and  _571
REMARK  243  A    between atoms: _570  and  _573
REMARK  244  A    between atoms: _573  and  _574
REMARK  245  A    between atoms: _574  and  _575
REMARK  246  A    between atoms: _575  and  _576
REMARK  247  A    between atoms: _576  and  _577
REMARK  248  A    between atoms: _581  and  _583
REMARK  249  A    between atoms: _583  and  _584
REMARK  250  A    between atoms: _583  and  _586
REMARK  251  A    between atoms: _589  and  _591
REMARK  252  A    between atoms: _591  and  _592
REMARK  253  A    between atoms: _591  and  _594
REMARK  254  A    between atoms: _594  and  _595
REMARK  255  A    between atoms: _600  and  _602
REMARK  256  A    between atoms: _602  and  _603
REMARK  257  A    between atoms: _602  and  _605
REMARK  258  A    between atoms: _605  and  _606
REMARK  259  A    between atoms: _606  and  _607
REMARK  260  A    between atoms: _607  and  _608
REMARK  261  A    between atoms: _608  and  _609
REMARK  262  A    between atoms: _614  and  _615
REMARK  263  A    between atoms: _620  and  _622
REMARK  264  A    between atoms: _622  and  _623
REMARK  265  A    between atoms: _622  and  _625
REMARK  266  A    between atoms: _625  and  _626
REMARK  267  A    between atoms: _629  and  _631
REMARK  268  A    between atoms: _631  and  _632
REMARK  269  A    between atoms: _634  and  _636
REMARK  270  A    between atoms: _636  and  _637
REMARK  271  A    between atoms: _636  and  _639
REMARK  272  A    between atoms: _639  and  _640
REMARK                            x       y       z     vdW  Elec       q    Type
REMARK                         _______ _______ _______ _____ _____    ______ ____
ROOT
ATOM      1  NE  ARG A   1      -5.017  86.011  56.079  0.00  0.00    -0.265 N 
ATOM      2  HE  ARG A   1      -4.841  85.141  56.621  0.00  0.00    +0.259 HD
ATOM      3  CZ  ARG A   1      -6.020  86.006  55.208  0.00  0.00    +0.342 C 
ATOM      4  NH2 ARG A   1      -6.757  84.908  55.055  0.00  0.00    -0.292 N 
ATOM      5 HH21 ARG A   1      -6.547  84.058  55.616  0.00  0.00    +0.255 HD
ATOM      6 HH22 ARG A   1      -7.543  84.900  54.374  0.00  0.00    +0.255 HD
ATOM      7  NH1 ARG A   1      -6.284  87.096  54.490  0.00  0.00    -0.292 N 
ATOM      8 HH11 ARG A   1      -5.705  87.951  54.611  0.00  0.00    +0.255 HD
ATOM      9 HH12 ARG A   1      -7.069  87.092  53.808  0.00  0.00    +0.255 HD
ENDROOT
BRANCH   1  10
ATOM     10  CD  ARG A   1      -4.147  87.154  56.325  0.00  0.00    +0.174 C 
BRANCH  10  11
ATOM     11  CG  ARG A   1      -2.812  86.713  56.876  0.00  0.00    +0.045 C 
BRANCH  11  12
ATOM     12  CB  ARG A   1      -2.085  85.754  55.936  0.00  0.00    +0.029 C 
BRANCH  12  13
ATOM     13  CA  ARG A   1      -1.065  84.866  56.655  0.00  0.00    +0.133 C 
BRANCH  13  14
ATOM     14  N   ARG A   1      -0.006  85.676  57.272  0.00  0.00    -0.239 NA
ATOM     15  H   ARG A   1       0.784  86.015  56.687  0.00  0.00    +0.142 HD
ENDBRANCH  13  14
BRANCH  13  16
ATOM     16  C   ARG A   1      -0.461  83.845  55.701  0.00  0.00    +0.224 C 
ATOM     17  O   ARG A   1       0.591  84.090  55.121  0.00  0.00    -0.287 OA
ENDBRANCH  13  16
ENDBRANCH  12  13
ENDBRANCH  11  12
ENDBRANCH  10  11
ENDBRANCH   1  10
TORSDOF 6
REMARK  Name = ../refined-set-2016/4zl4/4zl4_pocket.pdb
REMARK  272 active torsions:
REMARK  status: ('A' for Active; 'I' for Inactive)
REMARK    1  A    between atoms: _1  and  _3
REMARK    2  A    between atoms: _3  and  _4
REMARK    3  A    between atoms: _3  and  _6
REMARK    4  A    between atoms: _6  and  _7
REMARK    5  A    between atoms: _10  and  _12
REMARK    6  A    between atoms: _12  and  _13
REMARK    7  A    between atoms: _12  and  _15
REMARK    8  A    between atoms: _15  and  _16
REMARK    9  A    between atoms: _19  and  _21
REMARK   10  A    between atoms: _21  and  _22
REMARK   11  A    between atoms: _21  and  _24
REMARK   12  A    between atoms: _24  and  _25
REMARK   13  A    between atoms: _28  and  _30
REMARK   14  A    between atoms: _30  and  _31
REMARK   15  A    between atoms: _30  and  _33
REMARK   16  A    between atoms: _33  and  _34
REMARK   17  A    between atoms: _34  and  _35
REMARK   18  A    between atoms: _38  and  _40
REMARK   19  A    between atoms: _40  and  _41
REMARK   20  A    between atoms: _40  and  _43
REMARK   21  A    between atoms: _43  and  _44
REMARK   22  A    between atoms: _49  and  _50
REMARK   23  A    between atoms: _52  and  _54
REMARK   24  A    between atoms: _54  and  _55
REMARK   25  A    between atoms: _58  and  _60
REMARK   26  A    between atoms: _60  and  _61
REMARK   27  A    between atoms: _60  and  _63
REMARK   28  A    between atoms: _63  and  _64
REMARK   29  A    between atoms: _69  and  _70
REMARK   30  A    between atoms: _72  and  _74
REMARK   31  A    between atoms: _74  and  _75
REMARK   32  A    between atoms: _74  and  _77
REMARK   33  A    between atoms: _77  and  _78
REMARK   34  A    between atoms: _83  and  _84
REMARK   35  A    between atoms: _86  and  _88
REMARK   36  A    between atoms: _88  and  _89
REMARK   37  A    between atoms: _88  and  _91
REMARK   38  A    between atoms: _91  and  _92
REMARK   39  A    between atoms: _95  and  _97
REMARK   40  A    between atoms: _97  and  _98
REMARK   41  A    between atoms: _97  and  _100
REMARK   42  A    between atoms: _100  and  _101
REMARK   43  A    between atoms: _104  and  _106
REMARK   44  A    between atoms: _106  and  _107
REMARK   45  A    between atoms: _106  and  _109
REMARK   46  A    between atoms: _109  and  _110
REMARK   47  A    between atoms: _113  and  _115
REMARK   48  A    between atoms: _115  and  _116
REMARK   49  A    between atoms: _115  and  _118
REMARK   50  A    between atoms: _118  and  _119
REMARK   51  A    between atoms: _122  and  _124
REMARK   52  A    between atoms: _124  and  _125
REMARK   53  A    between atoms: _127  and  _129
REMARK   54  A    between atoms: _129  and  _130
REMARK   55  A    between atoms: _129  and  _132
REMARK   56  A    between atoms: _132  and  _133
REMARK   57  A    between atoms: _135  and  _137
REMARK   58  A    between atoms: _137  and  _138
REMARK   59  A    between atoms: _137  and  _140
REMARK   60  A    between atoms: _140  and  _141
REMARK   61  A    between atoms: _143  and  _145
REMARK   62  A    between atoms: _145  and  _146
REMARK   63  A    between atoms: _145  and  _148
REMARK   64  A    between atoms: _148  and  _149
REMARK   65  A    between atoms: _151  and  _153
REMARK   66  A    between atoms: _153  and  _154
REMARK   67  A    between atoms: _153  and  _156
REMARK   68  A    between atoms: _156  and  _157
REMARK   69  A    between atoms: _162  and  _164
REMARK   70  A    between atoms: _164  and  _165
REMARK   71  A    between atoms: _164  and  _167
REMARK   72  A    between atoms: _167  and  _168
REMARK   73  A    between atoms: _168  and  _169
REMARK   74  A    between atoms: _174  and  _176
REMARK   75  A    between atoms: _176  and  _177
REMARK   76  A    between atoms: _176  and  _179
REMARK   77  A    between atoms: _179  and  _180
REMARK   78  A    between atoms: _182  and  _184
REMARK   79  A    between atoms: _184  and  _185
REMARK   80  A    between atoms: _184  and  _187
REMARK   81  A    between atoms: _187  and  _188
REMARK   82  A    between atoms: _193  and  _194
REMARK   83  A    between atoms: _196  and  _198
REMARK   84  A    between atoms: _198  and  _199
REMARK   85  A    between atoms: _198  and  _201
REMARK   86  A    between atoms: _203  and  _205
REMARK   87  A    between atoms: _205  and  _206
REMARK   88  A    between atoms: _205  and  _208
REMARK   89  A    between atoms: _208  and  _209
REMARK   90  A    between atoms: _209  and  _210
REMARK   91  A    between atoms: _213  and  _215
REMARK   92  A    between atoms: _215  and  _216
REMARK   93  A    between atoms: _218  and  _220
REMARK   94  A    between atoms: _220  and  _221
REMARK   95  A    between atoms: _220  and  _223
REMARK   96  A    between atoms: _223  and  _224
REMARK   97  A    between atoms: _226  and  _228
REMARK   98  A    between atoms: _228  and  _229
REMARK   99  A    between atoms: _228  and  _231
REMARK  100  A    between atoms: _231  and  _232
REMARK  101  A    between atoms: _235  and  _237
REMARK  102  A    between atoms: _237  and  _238
REMARK  103  A    between atoms: _237  and  _240
REMARK  104  A    between atoms: _240  and  _241
REMARK  105  A    between atoms: _241  and  _242
REMARK  106  A    between atoms: _245  and  _247
REMARK  107  A    between atoms: _247  and  _248
REMARK  108  A    between atoms: _247  and  _250
REMARK  109  A    between atoms: _250  and  _251
REMARK  110  A    between atoms: _253  and  _255
REMARK  111  A    between atoms: _255  and  _256
REMARK  112  A    between atoms: _255  and  _258
REMARK  113  A    between atoms: _258  and  _259
REMARK  114  A    between atoms: _262  and  _264
REMARK  115  A    between atoms: _264  and  _265
REMARK  116  A    between atoms: _264  and  _267
REMARK  117  A    between atoms: _267  and  _268
REMARK  118  A    between atoms: _274  and  _276
REMARK  119  A    between atoms: _276  and  _277
REMARK  120  A    between atoms: _276  and  _279
REMARK  121  A    between atoms: _279  and  _280
REMARK  122  A    between atoms: _283  and  _285
REMARK  123  A    between atoms: _285  and  _286
REMARK  124  A    between atoms: _285  and  _288
REMARK  125  A    between atoms: _288  and  _289
REMARK  126  A    between atoms: _294  and  _295
REMARK  127  A    between atoms: _297  and  _299
REMARK  128  A    between atoms: _299  and  _300
REMARK  129  A    between atoms: _299  and  _302
REMARK  130  A    between atoms: _302  and  _303
REMARK  131  A    between atoms: _303  and  _304
REMARK  132  A    between atoms: _309  and  _311
REMARK  133  A    between atoms: _311  and  _312
REMARK  134  A    between atoms: _311  and  _314
REMARK  135  A    between atoms: _314  and  _315
REMARK  136  A    between atoms: _315  and  _316
REMARK  137  A    between atoms: _321  and  _323
REMARK  138  A    between atoms: _323  and  _324
REMARK  139  A    between atoms: _327  and  _329
REMARK  140  A    between atoms: _329  and  _330
REMARK  141  A    between atoms: _332  and  _334
REMARK  142  A    between atoms: _334  and  _335
REMARK  143  A    between atoms: _334  and  _337
REMARK  144  A    between atoms: _340  and  _342
REMARK  145  A    between atoms: _342  and  _343
REMARK  146  A    between atoms: _342  and  _345
REMARK  147  A    between atoms: _345  and  _346
REMARK  148  A    between atoms: _349  and  _351
REMARK  149  A    between atoms: _351  and  _352
REMARK  150  A    between atoms: _354  and  _356
REMARK  151  A    between atoms: _356  and  _357
REMARK  152  A    between atoms: _356  and  _359
REMARK  153  A    between atoms: _359  and  _360
REMARK  154  A    between atoms: _360  and  _361
REMARK  155  A    between atoms: _363  and  _365
REMARK  156  A    between atoms: _365  and  _366
REMARK  157  A    between atoms: _365  and  _368
REMARK  158  A    between atoms: _368  and  _369
REMARK  159  A    between atoms: _371  and  _373
REMARK  160  A    between atoms: _373  and  _374
REMARK  161  A    between atoms: _373  and  _376
REMARK  162  A    between atoms: _376  and  _377
REMARK  163  A    between atoms: _377  and  _378
REMARK  164  A    between atoms: _378  and  _379
REMARK  165  A    between atoms: _379  and  _380
REMARK  166  A    between atoms: _384  and  _386
REMARK  167  A    between atoms: _386  and  _387
REMARK  168  A    between atoms: _386  and  _389
REMARK  169  A    between atoms: _389  and  _390
REMARK  170  A    between atoms: _390  and  _391
REMARK  171  A    between atoms: _391  and  _392
REMARK  172  A    between atoms: _401  and  _403
REMARK  173  A    between atoms: _403  and  _404
REMARK  174  A    between atoms: _403  and  _406
REMARK  175  A    between atoms: _406  and  _407
REMARK  176  A    between atoms: _412  and  _413
REMARK  177  A    between atoms: _415  and  _417
REMARK  178  A    between atoms: _417  and  _418
REMARK  179  A    between atoms: _417  and  _420
REMARK  180  A    between atoms: _420  and  _421
REMARK  181  A    between atoms: _426  and  _427
REMARK  182  A    between atoms: _429  and  _431
REMARK  183  A    between atoms: _431  and  _432
REMARK  184  A    between atoms: _431  and  _434
REMARK  185  A    between atoms: _434  and  _435
REMARK  186  A    between atoms: _440  and  _441
REMARK  187  A    between atoms: _443  and  _445
REMARK  188  A    between atoms: _445  and  _446
REMARK  189  A    between atoms: _445  and  _448
REMARK  190  A    between atoms: _448  and  _449
REMARK  191  A    between atoms: _452  and  _454
REMARK  192  A    between atoms: _454  and  _455
REMARK  193  A    between atoms: _454  and  _457
REMARK  194  A    between atoms: _460  and  _462
REMARK  195  A    between atoms: _462  and  _463
REMARK  196  A    between atoms: _462  and  _465
REMARK  197  A    between atoms: _465  and  _466
REMARK  198  A    between atoms: _469  and  _471
REMARK  199  A    between atoms: _471  and  _472
REMARK  200  A    between atoms: _471  and  _474
REMARK  201  A    between atoms: _474  and  _475
REMARK  202  A    between atoms: _477  and  _479
REMARK  203  A    between atoms: _479  and  _480
REMARK  204  A    between atoms: _482  and  _484
REMARK  205  A    between atoms: _484  and  _485
REMARK  206  A    between atoms: _484  and  _487
REMARK  207  A    between atoms: _487  and  _488
REMARK  208  A    between atoms: _490  and  _492
REMARK  209  A    between atoms: _492  and  _493
REMARK  210  A    between atoms: _492  and  _495
REMARK  211  A    between atoms: _495  and  _496
REMARK  212  A    between atoms: _499  and  _501
REMARK  213  A    between atoms: _501  and  _502
REMARK  214  A    between atoms: _501  and  _504
REMARK  215  A    between atoms: _504  and  _505
REMARK  216  A    between atoms: _511  and  _513
REMARK  217  A    between atoms: _513  and  _514
REMARK  218  A    between atoms: _513  and  _516
REMARK  219  A    between atoms: _516  and  _517
REMARK  220  A    between atoms: _520  and  _522
REMARK  221  A    between atoms: _522  and  _523
REMARK  222  A    between atoms: _522  and  _525
REMARK  223  A    between atoms: _525  and  _526
REMARK  224  A    between atoms: _531  and  _533
REMARK  225  A    between atoms: _533  and  _534
REMARK  226  A    between atoms: _533  and  _536
REMARK  227  A    between atoms: _536  and  _537
REMARK  228  A    between atoms: _542  and  _543
REMARK  229  A    between atoms: _545  and  _547
REMARK  230  A    between atoms: _547  and  _548
REMARK  231  A    between atoms: _547  and  _550
REMARK  232  A    between atoms: _550  and  _551
REMARK  233  A    between atoms: _551  and  _552
REMARK  234  A    between atoms: _552  and  _553
REMARK  235  A    between atoms: _553  and  _554
REMARK  236  A    between atoms: _558  and  _560
REMARK  237  A    between atoms: _560  and  _561
REMARK  238  A    between atoms: _560  and  _563
REMARK  239  A    between atoms: _563  and  _564
REMARK  240  A    between atoms: _564  and  _565
REMARK  241  A    between atoms: _568  and  _570
REMARK  242  A    between atoms: _570  and  _571
REMARK  243  A    between atoms: _570  and  _573
REMARK  244  A    between atoms: _573  and  _574
REMARK  245  A    between atoms: _574  and  _575
REMARK  246  A    between atoms: _575  and  _576
REMARK  247  A    between atoms: _576  and  _577
REMARK  248  A    between atoms: _581  and  _583
REMARK  249  A    between atoms: _583  and  _584
REMARK  250  A    between atoms: _583  and  _586
REMARK  251  A    between atoms: _589  and  _591
REMARK  252  A    between atoms: _591  and  _592
REMARK  253  A    between atoms: _591  and  _594
REMARK  254  A    between atoms: _594  and  _595
REMARK  255  A    between atoms: _600  and  _602
REMARK  256  A    between atoms: _602  and  _603
REMARK  257  A    between atoms: _602  and  _605
REMARK  258  A    between atoms: _605  and  _606
REMARK  259  A    between atoms: _606  and  _607
REMARK  260  A    between atoms: _607  and  _608
REMARK  261  A    between atoms: _608  and  _609
REMARK  262  A    between atoms: _614  and  _615
REMARK  263  A    between atoms: _620  and  _622
REMARK  264  A    between atoms: _622  and  _623
REMARK  265  A    between atoms: _622  and  _625
REMARK  266  A    between atoms: _625  and  _626
REMARK  267  A    between atoms: _629  and  _631
REMARK  268  A    between atoms: _631  and  _632
REMARK  269  A    between atoms: _634  and  _636
REMARK  270  A    between atoms: _636  and  _637
REMARK  271  A    between atoms: _636  and  _639
REMARK  272  A    between atoms: _639  and  _640
REMARK                            x       y       z     vdW  Elec       q    Type
REMARK                         _______ _______ _______ _____ _____    ______ ____
ROOT
ATOM      1  CA  TYR A   2       2.466  88.488  51.946  0.00  0.00    +0.153 C 
ENDROOT
BRANCH   1   4
ATOM      2  C   TYR A   1       0.706  86.812  51.947  0.00  0.00    +0.239 C 
ATOM      3  O   TYR A   1       1.016  86.399  53.063  0.00  0.00    -0.274 OA
ATOM      4  N   TYR A   2       1.298  87.843  51.366  0.00  0.00    -0.297 N 
ATOM      5  H   TYR A   2       0.917  88.203  50.468  0.00  0.00    +0.150 HD
BRANCH   2   6
ATOM      6  CA  TYR A   1      -0.417  86.166  51.155  0.00  0.00    +0.149 C 
BRANCH   6   7
ATOM      7  N   TYR A   1      -0.590  84.771  51.540  0.00  0.00    -0.238 NA
ATOM      8  H   TYR A   1      -0.618  84.521  52.549  0.00  0.00    +0.142 HD
ENDBRANCH   6   7
BRANCH   6   9
ATOM      9  CB  TYR A   1      -1.697  86.957  51.369  0.00  0.00    +0.053 C 
BRANCH   9  10
ATOM     10  CG  TYR A   1      -2.949  86.380  50.748  0.00  0.00    -0.020 A 
ATOM     11  CD2 TYR A   1      -3.944  85.805  51.536  0.00  0.00    -0.001 A 
ATOM     12  CE2 TYR A   1      -5.104  85.301  50.966  0.00  0.00    +0.036 A 
ATOM     13  CZ  TYR A   1      -5.273  85.381  49.598  0.00  0.00    +0.134 A 
ATOM     14  CE1 TYR A   1      -4.305  85.959  48.808  0.00  0.00    +0.036 A 
ATOM     15  CD1 TYR A   1      -3.156  86.451  49.383  0.00  0.00    -0.001 A 
BRANCH  13  16
ATOM     16  OH  TYR A   1      -6.410  84.903  48.992  0.00  0.00    -0.506 OA
ATOM     17  HH  TYR A   1      -6.348  85.049  48.015  0.00  0.00    +0.292 HD
ENDBRANCH  13  16
ENDBRANCH   9  10
ENDBRANCH   6   9
ENDBRANCH   2   6
ENDBRANCH   1   4
BRANCH   1  18
ATOM     18  C   TYR A   2       2.087  89.668  52.849  0.00  0.00    +0.241 C 
ATOM     19  N   TYR A   3       1.621  89.352  54.047  0.00  0.00    -0.298 N 
ATOM     20  H   TYR A   3       1.460  88.350  54.274  0.00  0.00    +0.150 HD
ATOM     21  O   TYR A   2       2.197  90.834  52.459  0.00  0.00    -0.273 OA
BRANCH  19  22
ATOM     22  CA  TYR A   3       1.327  90.352  55.055  0.00  0.00    +0.141 C 
BRANCH  22  23
ATOM     23  C   TYR A   3       2.350  90.312  56.176  0.00  0.00    +0.227 C 
ATOM     24  O   TYR A   3       2.709  89.245  56.637  0.00  0.00    -0.286 OA
ENDBRANCH  22  23
BRANCH  22  25
ATOM     25  CB  TYR A   3      -0.060  90.122  55.650  0.00  0.00    +0.054 C 
BRANCH  25  26
ATOM     26  CG  TYR A   3      -1.212  90.507  54.763  0.00  0.00    -0.020 A 
ATOM     27  CD2 TYR A   3      -1.770  91.776  54.837  0.00  0.00    -0.001 A 
ATOM     28  CE2 TYR A   3      -2.837  92.133  54.037  0.00  0.00    +0.036 A 
ATOM     29  CZ  TYR A   3      -3.357  91.215  53.151  0.00  0.00    +0.134 A 
ATOM     30  CE1 TYR A   3      -2.830  89.946  53.059  0.00  0.00    +0.036 A 
ATOM     31  CD1 TYR A   3      -1.764  89.596  53.868  0.00  0.00    -0.001 A 
BRANCH  29  32
ATOM     32  OH  TYR A   3      -4.412  91.577  52.357  0.00  0.00    -0.506 OA
ATOM     33  HH  TYR A   3      -4.149  92.345  51.791  0.00  0.00    +0.292 HD
ENDBRANCH  29  32
ENDBRANCH  25  26
ENDBRANCH  22  25
ENDBRANCH  19  22
ENDBRANCH   1  18
BRANCH   1  34
ATOM     34  CB  TYR A   2       3.395  88.955  50.828  0.00  0.00    +0.055 C 
BRANCH  34  35
ATOM     35  CG  TYR A   2       3.778  87.877  49.829  0.00  0.00    -0.020 A 
ATOM     36  CD2 TYR A   2       4.292  86.643  50.243  0.00  0.00    -0.001 A 
ATOM     37  CE2 TYR A   2       4.634  85.664  49.323  0.00  0.00    +0.036 A 
ATOM     38  CZ  TYR A   2       4.468  85.922  47.980  0.00  0.00    +0.134 A 
ATOM     39  CE1 TYR A   2       3.954  87.134  47.555  0.00  0.00    +0.036 A 
ATOM     40  CD1 TYR A   2       3.614  88.094  48.474  0.00  0.00    -0.001 A 
BRANCH  38  41
ATOM     41  OH  TYR A   2       4.786  84.985  47.028  0.00  0.00    -0.506 OA
ATOM     42  HH  TYR A   2       3.974  84.753  46.511  0.00  0.00    +0.292 HD
ENDBRANCH  38  41
ENDBRANCH  34  35
ENDBRANCH   1  34
TORSDOF 15
REMARK  Name = ../refined-set-2016/4zl4/4zl4_pocket.pdb
REMARK  272 active torsions:
REMARK  status: ('A' for Active; 'I' for Inactive)
REMARK    1  A    between atoms: _1  and  _3
REMARK    2  A    between atoms: _3  and  _4
REMARK    3  A    between atoms: _3  and  _6
REMARK    4  A    between atoms: _6  and  _7
REMARK    5  A    between atoms: _10  and  _12
REMARK    6  A    between atoms: _12  and  _13
REMARK    7  A    between atoms: _12  and  _15
REMARK    8  A    between atoms: _15  and  _16
REMARK    9  A    between atoms: _19  and  _21
REMARK   10  A    between atoms: _21  and  _22
REMARK   11  A    between atoms: _21  and  _24
REMARK   12  A    between atoms: _24  and  _25
REMARK   13  A    between atoms: _28  and  _30
REMARK   14  A    between atoms: _30  and  _31
REMARK   15  A    between atoms: _30  and  _33
REMARK   16  A    between atoms: _33  and  _34
REMARK   17  A    between atoms: _34  and  _35
REMARK   18  A    between atoms: _38  and  _40
REMARK   19  A    between atoms: _40  and  _41
REMARK   20  A    between atoms: _40  and  _43
REMARK   21  A    between atoms: _43  and  _44
REMARK   22  A    between atoms: _49  and  _50
REMARK   23  A    between atoms: _52  and  _54
REMARK   24  A    between atoms: _54  and  _55
REMARK   25  A    between atoms: _58  and  _60
REMARK   26  A    between atoms: _60  and  _61
REMARK   27  A    between atoms: _60  and  _63
REMARK   28  A    between atoms: _63  and  _64
REMARK   29  A    between atoms: _69  and  _70
REMARK   30  A    between atoms: _72  and  _74
REMARK   31  A    between atoms: _74  and  _75
REMARK   32  A    between atoms: _74  and  _77
REMARK   33  A    between atoms: _77  and  _78
REMARK   34  A    between atoms: _83  and  _84
REMARK   35  A    between atoms: _86  and  _88
REMARK   36  A    between atoms: _88  and  _89
REMARK   37  A    between atoms: _88  and  _91
REMARK   38  A    between atoms: _91  and  _92
REMARK   39  A    between atoms: _95  and  _97
REMARK   40  A    between atoms: _97  and  _98
REMARK   41  A    between atoms: _97  and  _100
REMARK   42  A    between atoms: _100  and  _101
REMARK   43  A    between atoms: _104  and  _106
REMARK   44  A    between atoms: _106  and  _107
REMARK   45  A    between atoms: _106  and  _109
REMARK   46  A    between atoms: _109  and  _110
REMARK   47  A    between atoms: _113  and  _115
REMARK   48  A    between atoms: _115  and  _116
REMARK   49  A    between atoms: _115  and  _118
REMARK   50  A    between atoms: _118  and  _119
REMARK   51  A    between atoms: _122  and  _124
REMARK   52  A    between atoms: _124  and  _125
REMARK   53  A    between atoms: _127  and  _129
REMARK   54  A    between atoms: _129  and  _130
REMARK   55  A    between atoms: _129  and  _132
REMARK   56  A    between atoms: _132  and  _133
REMARK   57  A    between atoms: _135  and  _137
REMARK   58  A    between atoms: _137  and  _138
REMARK   59  A    between atoms: _137  and  _140
REMARK   60  A    between atoms: _140  and  _141
REMARK   61  A    between atoms: _143  and  _145
REMARK   62  A    between atoms: _145  and  _146
REMARK   63  A    between atoms: _145  and  _148
REMARK   64  A    between atoms: _148  and  _149
REMARK   65  A    between atoms: _151  and  _153
REMARK   66  A    between atoms: _153  and  _154
REMARK   67  A    between atoms: _153  and  _156
REMARK   68  A    between atoms: _156  and  _157
REMARK   69  A    between atoms: _162  and  _164
REMARK   70  A    between atoms: _164  and  _165
REMARK   71  A    between atoms: _164  and  _167
REMARK   72  A    between atoms: _167  and  _168
REMARK   73  A    between atoms: _168  and  _169
REMARK   74  A    between atoms: _174  and  _176
REMARK   75  A    between atoms: _176  and  _177
REMARK   76  A    between atoms: _176  and  _179
REMARK   77  A    between atoms: _179  and  _180
REMARK   78  A    between atoms: _182  and  _184
REMARK   79  A    between atoms: _184  and  _185
REMARK   80  A    between atoms: _184  and  _187
REMARK   81  A    between atoms: _187  and  _188
REMARK   82  A    between atoms: _193  and  _194
REMARK   83  A    between atoms: _196  and  _198
REMARK   84  A    between atoms: _198  and  _199
REMARK   85  A    between atoms: _198  and  _201
REMARK   86  A    between atoms: _203  and  _205
REMARK   87  A    between atoms: _205  and  _206
REMARK   88  A    between atoms: _205  and  _208
REMARK   89  A    between atoms: _208  and  _209
REMARK   90  A    between atoms: _209  and  _210
REMARK   91  A    between atoms: _213  and  _215
REMARK   92  A    between atoms: _215  and  _216
REMARK   93  A    between atoms: _218  and  _220
REMARK   94  A    between atoms: _220  and  _221
REMARK   95  A    between atoms: _220  and  _223
REMARK   96  A    between atoms: _223  and  _224
REMARK   97  A    between atoms: _226  and  _228
REMARK   98  A    between atoms: _228  and  _229
REMARK   99  A    between atoms: _228  and  _231
REMARK  100  A    between atoms: _231  and  _232
REMARK  101  A    between atoms: _235  and  _237
REMARK  102  A    between atoms: _237  and  _238
REMARK  103  A    between atoms: _237  and  _240
REMARK  104  A    between atoms: _240  and  _241
REMARK  105  A    between atoms: _241  and  _242
REMARK  106  A    between atoms: _245  and  _247
REMARK  107  A    between atoms: _247  and  _248
REMARK  108  A    between atoms: _247  and  _250
REMARK  109  A    between atoms: _250  and  _251
REMARK  110  A    between atoms: _253  and  _255
REMARK  111  A    between atoms: _255  and  _256
REMARK  112  A    between atoms: _255  and  _258
REMARK  113  A    between atoms: _258  and  _259
REMARK  114  A    between atoms: _262  and  _264
REMARK  115  A    between atoms: _264  and  _265
REMARK  116  A    between atoms: _264  and  _267
REMARK  117  A    between atoms: _267  and  _268
REMARK  118  A    between atoms: _274  and  _276
REMARK  119  A    between atoms: _276  and  _277
REMARK  120  A    between atoms: _276  and  _279
REMARK  121  A    between atoms: _279  and  _280
REMARK  122  A    between atoms: _283  and  _285
REMARK  123  A    between atoms: _285  and  _286
REMARK  124  A    between atoms: _285  and  _288
REMARK  125  A    between atoms: _288  and  _289
REMARK  126  A    between atoms: _294  and  _295
REMARK  127  A    between atoms: _297  and  _299
REMARK  128  A    between atoms: _299  and  _300
REMARK  129  A    between atoms: _299  and  _302
REMARK  130  A    between atoms: _302  and  _303
REMARK  131  A    between atoms: _303  and  _304
REMARK  132  A    between atoms: _309  and  _311
REMARK  133  A    between atoms: _311  and  _312
REMARK  134  A    between atoms: _311  and  _314
REMARK  135  A    between atoms: _314  and  _315
REMARK  136  A    between atoms: _315  and  _316
REMARK  137  A    between atoms: _321  and  _323
REMARK  138  A    between atoms: _323  and  _324
REMARK  139  A    between atoms: _327  and  _329
REMARK  140  A    between atoms: _329  and  _330
REMARK  141  A    between atoms: _332  and  _334
REMARK  142  A    between atoms: _334  and  _335
REMARK  143  A    between atoms: _334  and  _337
REMARK  144  A    between atoms: _340  and  _342
REMARK  145  A    between atoms: _342  and  _343
REMARK  146  A    between atoms: _342  and  _345
REMARK  147  A    between atoms: _345  and  _346
REMARK  148  A    between atoms: _349  and  _351
REMARK  149  A    between atoms: _351  and  _352
REMARK  150  A    between atoms: _354  and  _356
REMARK  151  A    between atoms: _356  and  _357
REMARK  152  A    between atoms: _356  and  _359
REMARK  153  A    between atoms: _359  and  _360
REMARK  154  A    between atoms: _360  and  _361
REMARK  155  A    between atoms: _363  and  _365
REMARK  156  A    between atoms: _365  and  _366
REMARK  157  A    between atoms: _365  and  _368
REMARK  158  A    between atoms: _368  and  _369
REMARK  159  A    between atoms: _371  and  _373
REMARK  160  A    between atoms: _373  and  _374
REMARK  161  A    between atoms: _373  and  _376
REMARK  162  A    between atoms: _376  and  _377
REMARK  163  A    between atoms: _377  and  _378
REMARK  164  A    between atoms: _378  and  _379
REMARK  165  A    between atoms: _379  and  _380
REMARK  166  A    between atoms: _384  and  _386
REMARK  167  A    between atoms: _386  and  _387
REMARK  168  A    between atoms: _386  and  _389
REMARK  169  A    between atoms: _389  and  _390
REMARK  170  A    between atoms: _390  and  _391
REMARK  171  A    between atoms: _391  and  _392
REMARK  172  A    between atoms: _401  and  _403
REMARK  173  A    between atoms: _403  and  _404
REMARK  174  A    between atoms: _403  and  _406
REMARK  175  A    between atoms: _406  and  _407
REMARK  176  A    between atoms: _412  and  _413
REMARK  177  A    between atoms: _415  and  _417
REMARK  178  A    between atoms: _417  and  _418
REMARK  179  A    between atoms: _417  and  _420
REMARK  180  A    between atoms: _420  and  _421
REMARK  181  A    between atoms: _426  and  _427
REMARK  182  A    between atoms: _429  and  _431
REMARK  183  A    between atoms: _431  and  _432
REMARK  184  A    between atoms: _431  and  _434
REMARK  185  A    between atoms: _434  and  _435
REMARK  186  A    between atoms: _440  and  _441
REMARK  187  A    between atoms: _443  and  _445
REMARK  188  A    between atoms: _445  and  _446
REMARK  189  A    between atoms: _445  and  _448
REMARK  190  A    between atoms: _448  and  _449
REMARK  191  A    between atoms: _452  and  _454
REMARK  192  A    between atoms: _454  and  _455
REMARK  193  A    between atoms: _454  and  _457
REMARK  194  A    between atoms: _460  and  _462
REMARK  195  A    between atoms: _462  and  _463
REMARK  196  A    between atoms: _462  and  _465
REMARK  197  A    between atoms: _465  and  _466
REMARK  198  A    between atoms: _469  and  _471
REMARK  199  A    between atoms: _471  and  _472
REMARK  200  A    between atoms: _471  and  _474
REMARK  201  A    between atoms: _474  and  _475
REMARK  202  A    between atoms: _477  and  _479
REMARK  203  A    between atoms: _479  and  _480
REMARK  204  A    between atoms: _482  and  _484
REMARK  205  A    between atoms: _484  and  _485
REMARK  206  A    between atoms: _484  and  _487
REMARK  207  A    between atoms: _487  and  _488
REMARK  208  A    between atoms: _490  and  _492
REMARK  209  A    between atoms: _492  and  _493
REMARK  210  A    between atoms: _492  and  _495
REMARK  211  A    between atoms: _495  and  _496
REMARK  212  A    between atoms: _499  and  _501
REMARK  213  A    between atoms: _501  and  _502
REMARK  214  A    between atoms: _501  and  _504
REMARK  215  A    between atoms: _504  and  _505
REMARK  216  A    between atoms: _511  and  _513
REMARK  217  A    between atoms: _513  and  _514
REMARK  218  A    between atoms: _513  and  _516
REMARK  219  A    between atoms: _516  and  _517
REMARK  220  A    between atoms: _520  and  _522
REMARK  221  A    between atoms: _522  and  _523
REMARK  222  A    between atoms: _522  and  _525
REMARK  223  A    between atoms: _525  and  _526
REMARK  224  A    between atoms: _531  and  _533
REMARK  225  A    between atoms: _533  and  _534
REMARK  226  A    between atoms: _533  and  _536
REMARK  227  A    between atoms: _536  and  _537
REMARK  228  A    between atoms: _542  and  _543
REMARK  229  A    between atoms: _545  and  _547
REMARK  230  A    between atoms: _547  and  _548
REMARK  231  A    between atoms: _547  and  _550
REMARK  232  A    between atoms: _550  and  _551
REMARK  233  A    between atoms: _551  and  _552
REMARK  234  A    between atoms: _552  and  _553
REMARK  235  A    between atoms: _553  and  _554
REMARK  236  A    between atoms: _558  and  _560
REMARK  237  A    between atoms: _560  and  _561
REMARK  238  A    between atoms: _560  and  _563
REMARK  239  A    between atoms: _563  and  _564
REMARK  240  A    between atoms: _564  and  _565
REMARK  241  A    between atoms: _568  and  _570
REMARK  242  A    between atoms: _570  and  _571
REMARK  243  A    between atoms: _570  and  _573
REMARK  244  A    between atoms: _573  and  _574
REMARK  245  A    between atoms: _574  and  _575
REMARK  246  A    between atoms: _575  and  _576
REMARK  247  A    between atoms: _576  and  _577
REMARK  248  A    between atoms: _581  and  _583
REMARK  249  A    between atoms: _583  and  _584
REMARK  250  A    between atoms: _583  and  _586
REMARK  251  A    between atoms: _589  and  _591
REMARK  252  A    between atoms: _591  and  _592
REMARK  253  A    between atoms: _591  and  _594
REMARK  254  A    between atoms: _594  and  _595
REMARK  255  A    between atoms: _600  and  _602
REMARK  256  A    between atoms: _602  and  _603
REMARK  257  A    between atoms: _602  and  _605
REMARK  258  A    between atoms: _605  and  _606
REMARK  259  A    between atoms: _606  and  _607
REMARK  260  A    between atoms: _607  and  _608
REMARK  261  A    between atoms: _608  and  _609
REMARK  262  A    between atoms: _614  and  _615
REMARK  263  A    between atoms: _620  and  _622
REMARK  264  A    between atoms: _622  and  _623
REMARK  265  A    between atoms: _622  and  _625
REMARK  266  A    between atoms: _625  and  _626
REMARK  267  A    between atoms: _629  and  _631
REMARK  268  A    between atoms: _631  and  _632
REMARK  269  A    between atoms: _634  and  _636
REMARK  270  A    between atoms: _636  and  _637
REMARK  271  A    between atoms: _636  and  _639
REMARK  272  A    between atoms: _639  and  _640
REMARK                            x       y       z     vdW  Elec       q    Type
REMARK                         _______ _______ _______ _____ _____    ______ ____
ROOT
ATOM      1  CA  SER A   6       1.139  99.279  44.798  0.00  0.00    +0.178 C 
ENDROOT
BRANCH   1   2
ATOM      2  C   SER A   6       2.188 100.374  44.685  0.00  0.00    +0.243 C 
ATOM      3  O   SER A   6       3.222 100.337  45.360  0.00  0.00    -0.273 OA
ATOM      4  N   THR A   7       1.931 101.327  43.800  0.00  0.00    -0.295 N 
ATOM      5  H   THR A   7       1.029 101.311  43.283  0.00  0.00    +0.150 HD
BRANCH   4   6
ATOM      6  CA  THR A   7       2.888 102.399  43.535  0.00  0.00    +0.176 C 
BRANCH   6   7
ATOM      7  C   THR A   7       3.364 103.045  44.832  0.00  0.00    +0.243 C 
ATOM      8  N   PHE A   8       2.415 103.343  45.712  0.00  0.00    -0.297 N 
ATOM      9  H   PHE A   8       1.427 103.091  45.506  0.00  0.00    +0.150 HD
ATOM     10  O   THR A   7       4.560 103.250  45.038  0.00  0.00    -0.273 OA
BRANCH   8  11
ATOM     11  CA  PHE A   8       2.738 104.016  46.958  0.00  0.00    +0.153 C 
BRANCH  11  12
ATOM     12  C   PHE A   8       2.472 103.136  48.167  0.00  0.00    +0.241 C 
ATOM     13  N   THR A   9       3.010 103.557  49.300  0.00  0.00    -0.295 N 
ATOM     14  H   THR A   9       3.684 104.348  49.257  0.00  0.00    +0.150 HD
ATOM     15  O   PHE A   8       1.821 102.105  48.073  0.00  0.00    -0.273 OA
BRANCH  13  16
ATOM     16  CA  THR A   9       2.716 102.981  50.597  0.00  0.00    +0.176 C 
BRANCH  16  17
ATOM     17  C   THR A   9       1.444 103.628  51.183  0.00  0.00    +0.243 C 
ATOM     18  N   HIS A  10       0.491 102.812  51.629  0.00  0.00    -0.298 N 
ATOM     19  H   HIS A  10       0.669 101.787  51.624  0.00  0.00    +0.150 HD
ATOM     20  O   THR A   9       1.329 104.856  51.215  0.00  0.00    -0.273 OA
BRANCH  18  21
ATOM     21  CA  HIS A  10      -0.804 103.301  52.129  0.00  0.00    +0.143 C 
BRANCH  21  22
ATOM     22  C   HIS A  10      -0.978 103.061  53.614  0.00  0.00    +0.227 C 
ATOM     23  O   HIS A  10      -0.777 101.947  54.084  0.00  0.00    -0.286 OA
ENDBRANCH  21  22
BRANCH  21  24
ATOM     24  CB  HIS A  10      -1.958 102.633  51.379  0.00  0.00    +0.075 C 
BRANCH  24  25
ATOM     25  CG  HIS A  10      -1.935 102.897  49.908  0.00  0.00    +0.082 A 
ATOM     26  ND1 HIS A  10      -2.850 103.710  49.282  0.00  0.00    -0.227 NA
ATOM     27  CE1 HIS A  10      -2.567 103.775  47.993  0.00  0.00    +0.199 A 
ATOM     28  NE2 HIS A  10      -1.497 103.037  47.763  0.00  0.00    -0.221 NA
ATOM     29  CD2 HIS A  10      -1.074 102.488  48.946  0.00  0.00    +0.115 A 
ENDBRANCH  24  25
ENDBRANCH  21  24
ENDBRANCH  18  21
ENDBRANCH  16  17
BRANCH  16  30
ATOM     30  CB  THR A   9       3.893 103.201  51.531  0.00  0.00    +0.137 C 
ATOM     31  CG2 THR A   9       3.571 102.718  52.933  0.00  0.00    +0.034 C 
BRANCH  30  32
ATOM     32  OG1 THR A   9       5.045 102.526  51.009  0.00  0.00    -0.382 OA
ATOM     33  HG1 THR A   9       5.260 102.888  50.113  0.00  0.00    +0.210 HD
ENDBRANCH  30  32
ENDBRANCH  16  30
ENDBRANCH  13  16
ENDBRANCH  11  12
BRANCH  11  34
ATOM     34  CB  PHE A   8       1.951 105.334  47.066  0.00  0.00    +0.055 C 
BRANCH  34  35
ATOM     35  CG  PHE A   8       2.142 106.247  45.880  0.00  0.00    -0.020 A 
ATOM     36  CD2 PHE A   8       3.407 106.760  45.573  0.00  0.00    -0.004 A 
ATOM     37  CE2 PHE A   8       3.604 107.603  44.468  0.00  0.00    -0.000 A 
ATOM     38  CZ  PHE A   8       2.533 107.937  43.658  0.00  0.00    -0.000 A 
ATOM     39  CE1 PHE A   8       1.257 107.422  43.947  0.00  0.00    -0.000 A 
ATOM     40  CD1 PHE A   8       1.073 106.581  45.055  0.00  0.00    -0.004 A 
ENDBRANCH  34  35
ENDBRANCH  11  34
ENDBRANCH   8  11
ENDBRANCH   6   7
BRANCH   6  41
ATOM     41  CB  THR A   7       2.286 103.489  42.635  0.00  0.00    +0.137 C 
ATOM     42  CG2 THR A   7       3.353 104.534  42.271  0.00  0.00    +0.034 C 
BRANCH  41  43
ATOM     43  OG1 THR A   7       1.749 102.888  41.445  0.00  0.00    -0.382 OA
ATOM     44  HG1 THR A   7       2.473 102.420  40.958  0.00  0.00    +0.210 HD
ENDBRANCH  41  43
ENDBRANCH   6  41
ENDBRANCH   4   6
ENDBRANCH   1   2
BRANCH   1  46
ATOM     45  C   GLY A   5       1.168  97.521  43.170  0.00  0.00    +0.243 C 
ATOM     46  N   SER A   6       1.686  98.052  44.266  0.00  0.00    -0.295 N 
ATOM     47  H   SER A   6       2.485  97.587  44.743  0.00  0.00    +0.150 HD
ATOM     48  O   GLY A   5       0.138  97.947  42.659  0.00  0.00    -0.273 OA
BRANCH  45  49
ATOM     49  CA  GLY A   5       1.906  96.334  42.570  0.00  0.00    +0.176 C 
BRANCH  49  51
ATOM     50  C   SER A   4       4.180  96.143  43.424  0.00  0.00    +0.243 C 
ATOM     51  N   GLY A   5       2.899  95.784  43.473  0.00  0.00    -0.295 N 
ATOM     52  H   GLY A   5       2.600  95.085  44.183  0.00  0.00    +0.150 HD
ATOM     53  O   SER A   4       4.628  96.926  42.575  0.00  0.00    -0.273 OA
BRANCH  50  54
ATOM     54  CA  SER A   4       5.090  95.512  44.491  0.00  0.00    +0.178 C 
BRANCH  54  57
ATOM     55  C   ASP A   3       3.673  95.606  46.471  0.00  0.00    +0.241 C 
ATOM     56  O   ASP A   3       3.670  96.843  46.468  0.00  0.00    -0.273 OA
ATOM     57  N   SER A   4       4.321  94.887  45.563  0.00  0.00    -0.295 N 
ATOM     58  H   SER A   4       4.280  93.849  45.617  0.00  0.00    +0.150 HD
BRANCH  55  59
ATOM     59  CA  ASP A   3       2.862  94.821  47.511  0.00  0.00    +0.160 C 
BRANCH  59  62
ATOM     60  C   VAL A   2       3.621  93.686  49.520  0.00  0.00    +0.241 C 
ATOM     61  O   VAL A   2       3.613  92.575  48.961  0.00  0.00    -0.273 OA
ATOM     62  N   ASP A   3       3.416  94.823  48.863  0.00  0.00    -0.297 N 
ATOM     63  H   ASP A   3       3.653  95.728  49.318  0.00  0.00    +0.150 HD
BRANCH  60  64
ATOM     64  CA  VAL A   2       3.869  93.819  51.023  0.00  0.00    +0.148 C 
BRANCH  64  67
ATOM     65  C   LEU A   1       1.688  94.394  51.913  0.00  0.00    +0.238 C 
ATOM     66  O   LEU A   1       1.861  95.587  51.680  0.00  0.00    -0.274 OA
ATOM     67  N   VAL A   2       2.616  93.475  51.668  0.00  0.00    -0.297 N 
ATOM     68  H   VAL A   2       2.440  92.488  51.945  0.00  0.00    +0.150 HD
BRANCH  65  69
ATOM     69  CA  LEU A   1       0.372  93.904  52.523  0.00  0.00    +0.145 C 
BRANCH  69  70
ATOM     70  N   LEU A   1       0.030  94.666  53.715  0.00  0.00    -0.238 NA
ATOM     71  H   LEU A   1      -0.750  95.353  53.666  0.00  0.00    +0.142 HD
ENDBRANCH  69  70
BRANCH  69  72
ATOM     72  CB  LEU A   1      -0.749  94.017  51.499  0.00  0.00    +0.026 C 
BRANCH  72  73
ATOM     73  CG  LEU A   1      -0.592  93.171  50.233  0.00  0.00    +0.002 C 
ATOM     74  CD2 LEU A   1      -0.722  91.644  50.485  0.00  0.00    +0.000 C 
ATOM     75  CD1 LEU A   1      -1.595  93.664  49.202  0.00  0.00    +0.000 C 
ENDBRANCH  72  73
ENDBRANCH  69  72
ENDBRANCH  65  69
ENDBRANCH  64  67
BRANCH  64  76
ATOM     76  CB  VAL A   2       5.053  92.911  51.496  0.00  0.00    +0.027 C 
ATOM     77  CG2 VAL A   2       5.161  92.901  53.014  0.00  0.00    +0.002 C 
ATOM     78  CG1 VAL A   2       6.380  93.394  50.905  0.00  0.00    +0.002 C 
ENDBRANCH  64  76
ENDBRANCH  60  64
ENDBRANCH  59  62
BRANCH  59  79
ATOM     79  CB  ASP A   3       1.447  95.371  47.572  0.00  0.00    +0.143 C 
BRANCH  79  80
ATOM     80  CG  ASP A   3       0.658  95.076  46.331  0.00  0.00    +0.367 C 
ATOM     81  OD2 ASP A   3      -0.545  95.391  46.337  0.00  0.00    -0.246 OA
ATOM     82  OD1 ASP A   3       1.233  94.557  45.350  0.00  0.00    -0.246 OA
ENDBRANCH  79  80
ENDBRANCH  59  79
ENDBRANCH  55  59
ENDBRANCH  54  57
BRANCH  54  83
ATOM     83  CB  SER A   4       6.021  94.472  43.871  0.00  0.00    +0.166 C 
BRANCH  83  84
ATOM     84  OG  SER A   4       5.253  93.422  43.321  0.00  0.00    -0.380 OA
ATOM     85  H   SER A   4       4.651  93.785  42.624  0.00  0.00    +0.211 HD
ENDBRANCH  83  84
ENDBRANCH  54  83
ENDBRANCH  50  54
ENDBRANCH  49  51
ENDBRANCH  45  49
ENDBRANCH   1  46
BRANCH   1  86
ATOM     86  CB  SER A   6       0.686  99.091  46.238  0.00  0.00    +0.166 C 
BRANCH  86  87
ATOM     87  OG  SER A   6       0.157 100.296  46.735  0.00  0.00    -0.380 OA
ATOM     88  H   SER A   6       0.853 101.000  46.700  0.00  0.00    +0.211 HD
ENDBRANCH  86  87
ENDBRANCH   1  86
TORSDOF 37
REMARK  Name = ../refined-set-2016/4zl4/4zl4_pocket.pdb
REMARK  272 active torsions:
REMARK  status: ('A' for Active; 'I' for Inactive)
REMARK    1  A    between atoms: _1  and  _3
REMARK    2  A    between atoms: _3  and  _4
REMARK    3  A    between atoms: _3  and  _6
REMARK    4  A    between atoms: _6  and  _7
REMARK    5  A    between atoms: _10  and  _12
REMARK    6  A    between atoms: _12  and  _13
REMARK    7  A    between atoms: _12  and  _15
REMARK    8  A    between atoms: _15  and  _16
REMARK    9  A    between atoms: _19  and  _21
REMARK   10  A    between atoms: _21  and  _22
REMARK   11  A    between atoms: _21  and  _24
REMARK   12  A    between atoms: _24  and  _25
REMARK   13  A    between atoms: _28  and  _30
REMARK   14  A    between atoms: _30  and  _31
REMARK   15  A    between atoms: _30  and  _33
REMARK   16  A    between atoms: _33  and  _34
REMARK   17  A    between atoms: _34  and  _35
REMARK   18  A    between atoms: _38  and  _40
REMARK   19  A    between atoms: _40  and  _41
REMARK   20  A    between atoms: _40  and  _43
REMARK   21  A    between atoms: _43  and  _44
REMARK   22  A    between atoms: _49  and  _50
REMARK   23  A    between atoms: _52  and  _54
REMARK   24  A    between atoms: _54  and  _55
REMARK   25  A    between atoms: _58  and  _60
REMARK   26  A    between atoms: _60  and  _61
REMARK   27  A    between atoms: _60  and  _63
REMARK   28  A    between atoms: _63  and  _64
REMARK   29  A    between atoms: _69  and  _70
REMARK   30  A    between atoms: _72  and  _74
REMARK   31  A    between atoms: _74  and  _75
REMARK   32  A    between atoms: _74  and  _77
REMARK   33  A    between atoms: _77  and  _78
REMARK   34  A    between atoms: _83  and  _84
REMARK   35  A    between atoms: _86  and  _88
REMARK   36  A    between atoms: _88  and  _89
REMARK   37  A    between atoms: _88  and  _91
REMARK   38  A    between atoms: _91  and  _92
REMARK   39  A    between atoms: _95  and  _97
REMARK   40  A    between atoms: _97  and  _98
REMARK   41  A    between atoms: _97  and  _100
REMARK   42  A    between atoms: _100  and  _101
REMARK   43  A    between atoms: _104  and  _106
REMARK   44  A    between atoms: _106  and  _107
REMARK   45  A    between atoms: _106  and  _109
REMARK   46  A    between atoms: _109  and  _110
REMARK   47  A    between atoms: _113  and  _115
REMARK   48  A    between atoms: _115  and  _116
REMARK   49  A    between atoms: _115  and  _118
REMARK   50  A    between atoms: _118  and  _119
REMARK   51  A    between atoms: _122  and  _124
REMARK   52  A    between atoms: _124  and  _125
REMARK   53  A    between atoms: _127  and  _129
REMARK   54  A    between atoms: _129  and  _130
REMARK   55  A    between atoms: _129  and  _132
REMARK   56  A    between atoms: _132  and  _133
REMARK   57  A    between atoms: _135  and  _137
REMARK   58  A    between atoms: _137  and  _138
REMARK   59  A    between atoms: _137  and  _140
REMARK   60  A    between atoms: _140  and  _141
REMARK   61  A    between atoms: _143  and  _145
REMARK   62  A    between atoms: _145  and  _146
REMARK   63  A    between atoms: _145  and  _148
REMARK   64  A    between atoms: _148  and  _149
REMARK   65  A    between atoms: _151  and  _153
REMARK   66  A    between atoms: _153  and  _154
REMARK   67  A    between atoms: _153  and  _156
REMARK   68  A    between atoms: _156  and  _157
REMARK   69  A    between atoms: _162  and  _164
REMARK   70  A    between atoms: _164  and  _165
REMARK   71  A    between atoms: _164  and  _167
REMARK   72  A    between atoms: _167  and  _168
REMARK   73  A    between atoms: _168  and  _169
REMARK   74  A    between atoms: _174  and  _176
REMARK   75  A    between atoms: _176  and  _177
REMARK   76  A    between atoms: _176  and  _179
REMARK   77  A    between atoms: _179  and  _180
REMARK   78  A    between atoms: _182  and  _184
REMARK   79  A    between atoms: _184  and  _185
REMARK   80  A    between atoms: _184  and  _187
REMARK   81  A    between atoms: _187  and  _188
REMARK   82  A    between atoms: _193  and  _194
REMARK   83  A    between atoms: _196  and  _198
REMARK   84  A    between atoms: _198  and  _199
REMARK   85  A    between atoms: _198  and  _201
REMARK   86  A    between atoms: _203  and  _205
REMARK   87  A    between atoms: _205  and  _206
REMARK   88  A    between atoms: _205  and  _208
REMARK   89  A    between atoms: _208  and  _209
REMARK   90  A    between atoms: _209  and  _210
REMARK   91  A    between atoms: _213  and  _215
REMARK   92  A    between atoms: _215  and  _216
REMARK   93  A    between atoms: _218  and  _220
REMARK   94  A    between atoms: _220  and  _221
REMARK   95  A    between atoms: _220  and  _223
REMARK   96  A    between atoms: _223  and  _224
REMARK   97  A    between atoms: _226  and  _228
REMARK   98  A    between atoms: _228  and  _229
REMARK   99  A    between atoms: _228  and  _231
REMARK  100  A    between atoms: _231  and  _232
REMARK  101  A    between atoms: _235  and  _237
REMARK  102  A    between atoms: _237  and  _238
REMARK  103  A    between atoms: _237  and  _240
REMARK  104  A    between atoms: _240  and  _241
REMARK  105  A    between atoms: _241  and  _242
REMARK  106  A    between atoms: _245  and  _247
REMARK  107  A    between atoms: _247  and  _248
REMARK  108  A    between atoms: _247  and  _250
REMARK  109  A    between atoms: _250  and  _251
REMARK  110  A    between atoms: _253  and  _255
REMARK  111  A    between atoms: _255  and  _256
REMARK  112  A    between atoms: _255  and  _258
REMARK  113  A    between atoms: _258  and  _259
REMARK  114  A    between atoms: _262  and  _264
REMARK  115  A    between atoms: _264  and  _265
REMARK  116  A    between atoms: _264  and  _267
REMARK  117  A    between atoms: _267  and  _268
REMARK  118  A    between atoms: _274  and  _276
REMARK  119  A    between atoms: _276  and  _277
REMARK  120  A    between atoms: _276  and  _279
REMARK  121  A    between atoms: _279  and  _280
REMARK  122  A    between atoms: _283  and  _285
REMARK  123  A    between atoms: _285  and  _286
REMARK  124  A    between atoms: _285  and  _288
REMARK  125  A    between atoms: _288  and  _289
REMARK  126  A    between atoms: _294  and  _295
REMARK  127  A    between atoms: _297  and  _299
REMARK  128  A    between atoms: _299  and  _300
REMARK  129  A    between atoms: _299  and  _302
REMARK  130  A    between atoms: _302  and  _303
REMARK  131  A    between atoms: _303  and  _304
REMARK  132  A    between atoms: _309  and  _311
REMARK  133  A    between atoms: _311  and  _312
REMARK  134  A    between atoms: _311  and  _314
REMARK  135  A    between atoms: _314  and  _315
REMARK  136  A    between atoms: _315  and  _316
REMARK  137  A    between atoms: _321  and  _323
REMARK  138  A    between atoms: _323  and  _324
REMARK  139  A    between atoms: _327  and  _329
REMARK  140  A    between atoms: _329  and  _330
REMARK  141  A    between atoms: _332  and  _334
REMARK  142  A    between atoms: _334  and  _335
REMARK  143  A    between atoms: _334  and  _337
REMARK  144  A    between atoms: _340  and  _342
REMARK  145  A    between atoms: _342  and  _343
REMARK  146  A    between atoms: _342  and  _345
REMARK  147  A    between atoms: _345  and  _346
REMARK  148  A    between atoms: _349  and  _351
REMARK  149  A    between atoms: _351  and  _352
REMARK  150  A    between atoms: _354  and  _356
REMARK  151  A    between atoms: _356  and  _357
REMARK  152  A    between atoms: _356  and  _359
REMARK  153  A    between atoms: _359  and  _360
REMARK  154  A    between atoms: _360  and  _361
REMARK  155  A    between atoms: _363  and  _365
REMARK  156  A    between atoms: _365  and  _366
REMARK  157  A    between atoms: _365  and  _368
REMARK  158  A    between atoms: _368  and  _369
REMARK  159  A    between atoms: _371  and  _373
REMARK  160  A    between atoms: _373  and  _374
REMARK  161  A    between atoms: _373  and  _376
REMARK  162  A    between atoms: _376  and  _377
REMARK  163  A    between atoms: _377  and  _378
REMARK  164  A    between atoms: _378  and  _379
REMARK  165  A    between atoms: _379  and  _380
REMARK  166  A    between atoms: _384  and  _386
REMARK  167  A    between atoms: _386  and  _387
REMARK  168  A    between atoms: _386  and  _389
REMARK  169  A    between atoms: _389  and  _390
REMARK  170  A    between atoms: _390  and  _391
REMARK  171  A    between atoms: _391  and  _392
REMARK  172  A    between atoms: _401  and  _403
REMARK  173  A    between atoms: _403  and  _404
REMARK  174  A    between atoms: _403  and  _406
REMARK  175  A    between atoms: _406  and  _407
REMARK  176  A    between atoms: _412  and  _413
REMARK  177  A    between atoms: _415  and  _417
REMARK  178  A    between atoms: _417  and  _418
REMARK  179  A    between atoms: _417  and  _420
REMARK  180  A    between atoms: _420  and  _421
REMARK  181  A    between atoms: _426  and  _427
REMARK  182  A    between atoms: _429  and  _431
REMARK  183  A    between atoms: _431  and  _432
REMARK  184  A    between atoms: _431  and  _434
REMARK  185  A    between atoms: _434  and  _435
REMARK  186  A    between atoms: _440  and  _441
REMARK  187  A    between atoms: _443  and  _445
REMARK  188  A    between atoms: _445  and  _446
REMARK  189  A    between atoms: _445  and  _448
REMARK  190  A    between atoms: _448  and  _449
REMARK  191  A    between atoms: _452  and  _454
REMARK  192  A    between atoms: _454  and  _455
REMARK  193  A    between atoms: _454  and  _457
REMARK  194  A    between atoms: _460  and  _462
REMARK  195  A    between atoms: _462  and  _463
REMARK  196  A    between atoms: _462  and  _465
REMARK  197  A    between atoms: _465  and  _466
REMARK  198  A    between atoms: _469  and  _471
REMARK  199  A    between atoms: _471  and  _472
REMARK  200  A    between atoms: _471  and  _474
REMARK  201  A    between atoms: _474  and  _475
REMARK  202  A    between atoms: _477  and  _479
REMARK  203  A    between atoms: _479  and  _480
REMARK  204  A    between atoms: _482  and  _484
REMARK  205  A    between atoms: _484  and  _485
REMARK  206  A    between atoms: _484  and  _487
REMARK  207  A    between atoms: _487  and  _488
REMARK  208  A    between atoms: _490  and  _492
REMARK  209  A    between atoms: _492  and  _493
REMARK  210  A    between atoms: _492  and  _495
REMARK  211  A    between atoms: _495  and  _496
REMARK  212  A    between atoms: _499  and  _501
REMARK  213  A    between atoms: _501  and  _502
REMARK  214  A    between atoms: _501  and  _504
REMARK  215  A    between atoms: _504  and  _505
REMARK  216  A    between atoms: _511  and  _513
REMARK  217  A    between atoms: _513  and  _514
REMARK  218  A    between atoms: _513  and  _516
REMARK  219  A    between atoms: _516  and  _517
REMARK  220  A    between atoms: _520  and  _522
REMARK  221  A    between atoms: _522  and  _523
REMARK  222  A    between atoms: _522  and  _525
REMARK  223  A    between atoms: _525  and  _526
REMARK  224  A    between atoms: _531  and  _533
REMARK  225  A    between atoms: _533  and  _534
REMARK  226  A    between atoms: _533  and  _536
REMARK  227  A    between atoms: _536  and  _537
REMARK  228  A    between atoms: _542  and  _543
REMARK  229  A    between atoms: _545  and  _547
REMARK  230  A    between atoms: _547  and  _548
REMARK  231  A    between atoms: _547  and  _550
REMARK  232  A    between atoms: _550  and  _551
REMARK  233  A    between atoms: _551  and  _552
REMARK  234  A    between atoms: _552  and  _553
REMARK  235  A    between atoms: _553  and  _554
REMARK  236  A    between atoms: _558  and  _560
REMARK  237  A    between atoms: _560  and  _561
REMARK  238  A    between atoms: _560  and  _563
REMARK  239  A    between atoms: _563  and  _564
REMARK  240  A    between atoms: _564  and  _565
REMARK  241  A    between atoms: _568  and  _570
REMARK  242  A    between atoms: _570  and  _571
REMARK  243  A    between atoms: _570  and  _573
REMARK  244  A    between atoms: _573  and  _574
REMARK  245  A    between atoms: _574  and  _575
REMARK  246  A    between atoms: _575  and  _576
REMARK  247  A    between atoms: _576  and  _577
REMARK  248  A    between atoms: _581  and  _583
REMARK  249  A    between atoms: _583  and  _584
REMARK  250  A    between atoms: _583  and  _586
REMARK  251  A    between atoms: _589  and  _591
REMARK  252  A    between atoms: _591  and  _592
REMARK  253  A    between atoms: _591  and  _594
REMARK  254  A    between atoms: _594  and  _595
REMARK  255  A    between atoms: _600  and  _602
REMARK  256  A    between atoms: _602  and  _603
REMARK  257  A    between atoms: _602  and  _605
REMARK  258  A    between atoms: _605  and  _606
REMARK  259  A    between atoms: _606  and  _607
REMARK  260  A    between atoms: _607  and  _608
REMARK  261  A    between atoms: _608  and  _609
REMARK  262  A    between atoms: _614  and  _615
REMARK  263  A    between atoms: _620  and  _622
REMARK  264  A    between atoms: _622  and  _623
REMARK  265  A    between atoms: _622  and  _625
REMARK  266  A    between atoms: _625  and  _626
REMARK  267  A    between atoms: _629  and  _631
REMARK  268  A    between atoms: _631  and  _632
REMARK  269  A    between atoms: _634  and  _636
REMARK  270  A    between atoms: _636  and  _637
REMARK  271  A    between atoms: _636  and  _639
REMARK  272  A    between atoms: _639  and  _640
REMARK                            x       y       z     vdW  Elec       q    Type
REMARK                         _______ _______ _______ _____ _____    ______ ____
ROOT
ATOM      1  CG  TYR A   1       7.967 109.268  43.570  0.00  0.00    -0.020 A 
ATOM      2  CD2 TYR A   1       7.057 109.482  44.597  0.00  0.00    -0.001 A 
ATOM      3  CE2 TYR A   1       5.879 110.161  44.373  0.00  0.00    +0.036 A 
ATOM      4  CZ  TYR A   1       5.596 110.616  43.114  0.00  0.00    +0.134 A 
ATOM      5  CE1 TYR A   1       6.476 110.396  42.084  0.00  0.00    +0.036 A 
ATOM      6  CD1 TYR A   1       7.645 109.731  42.315  0.00  0.00    -0.001 A 
ENDROOT
BRANCH   4   7
ATOM      7  OH  TYR A   1       4.419 111.277  42.868  0.00  0.00    -0.506 OA
ATOM      8  HH  TYR A   1       3.902 111.353  43.709  0.00  0.00    +0.292 HD
ENDBRANCH   4   7
BRANCH   1   9
ATOM      9  CB  TYR A   1       9.248 108.497  43.805  0.00  0.00    +0.051 C 
BRANCH   9  10
ATOM     10  CA  TYR A   1      10.393 109.298  44.372  0.00  0.00    +0.137 C 
BRANCH  10  11
ATOM     11  N   TYR A   1      10.083 109.721  45.723  0.00  0.00    -0.239 NA
ATOM     12  H   TYR A   1       9.282 110.364  45.883  0.00  0.00    +0.142 HD
ENDBRANCH  10  11
BRANCH  10  13
ATOM     13  C   TYR A   1      10.711 110.478  43.432  0.00  0.00    +0.224 C 
ATOM     14  O   TYR A   1      10.316 111.610  43.675  0.00  0.00    -0.287 OA
ENDBRANCH  10  13
ENDBRANCH   9  10
ENDBRANCH   1   9
TORSDOF 5
REMARK  Name = ../refined-set-2016/4zl4/4zl4_pocket.pdb
REMARK  272 active torsions:
REMARK  status: ('A' for Active; 'I' for Inactive)
REMARK    1  A    between atoms: _1  and  _3
REMARK    2  A    between atoms: _3  and  _4
REMARK    3  A    between atoms: _3  and  _6
REMARK    4  A    between atoms: _6  and  _7
REMARK    5  A    between atoms: _10  and  _12
REMARK    6  A    between atoms: _12  and  _13
REMARK    7  A    between atoms: _12  and  _15
REMARK    8  A    between atoms: _15  and  _16
REMARK    9  A    between atoms: _19  and  _21
REMARK   10  A    between atoms: _21  and  _22
REMARK   11  A    between atoms: _21  and  _24
REMARK   12  A    between atoms: _24  and  _25
REMARK   13  A    between atoms: _28  and  _30
REMARK   14  A    between atoms: _30  and  _31
REMARK   15  A    between atoms: _30  and  _33
REMARK   16  A    between atoms: _33  and  _34
REMARK   17  A    between atoms: _34  and  _35
REMARK   18  A    between atoms: _38  and  _40
REMARK   19  A    between atoms: _40  and  _41
REMARK   20  A    between atoms: _40  and  _43
REMARK   21  A    between atoms: _43  and  _44
REMARK   22  A    between atoms: _49  and  _50
REMARK   23  A    between atoms: _52  and  _54
REMARK   24  A    between atoms: _54  and  _55
REMARK   25  A    between atoms: _58  and  _60
REMARK   26  A    between atoms: _60  and  _61
REMARK   27  A    between atoms: _60  and  _63
REMARK   28  A    between atoms: _63  and  _64
REMARK   29  A    between atoms: _69  and  _70
REMARK   30  A    between atoms: _72  and  _74
REMARK   31  A    between atoms: _74  and  _75
REMARK   32  A    between atoms: _74  and  _77
REMARK   33  A    between atoms: _77  and  _78
REMARK   34  A    between atoms: _83  and  _84
REMARK   35  A    between atoms: _86  and  _88
REMARK   36  A    between atoms: _88  and  _89
REMARK   37  A    between atoms: _88  and  _91
REMARK   38  A    between atoms: _91  and  _92
REMARK   39  A    between atoms: _95  and  _97
REMARK   40  A    between atoms: _97  and  _98
REMARK   41  A    between atoms: _97  and  _100
REMARK   42  A    between atoms: _100  and  _101
REMARK   43  A    between atoms: _104  and  _106
REMARK   44  A    between atoms: _106  and  _107
REMARK   45  A    between atoms: _106  and  _109
REMARK   46  A    between atoms: _109  and  _110
REMARK   47  A    between atoms: _113  and  _115
REMARK   48  A    between atoms: _115  and  _116
REMARK   49  A    between atoms: _115  and  _118
REMARK   50  A    between atoms: _118  and  _119
REMARK   51  A    between atoms: _122  and  _124
REMARK   52  A    between atoms: _124  and  _125
REMARK   53  A    between atoms: _127  and  _129
REMARK   54  A    between atoms: _129  and  _130
REMARK   55  A    between atoms: _129  and  _132
REMARK   56  A    between atoms: _132  and  _133
REMARK   57  A    between atoms: _135  and  _137
REMARK   58  A    between atoms: _137  and  _138
REMARK   59  A    between atoms: _137  and  _140
REMARK   60  A    between atoms: _140  and  _141
REMARK   61  A    between atoms: _143  and  _145
REMARK   62  A    between atoms: _145  and  _146
REMARK   63  A    between atoms: _145  and  _148
REMARK   64  A    between atoms: _148  and  _149
REMARK   65  A    between atoms: _151  and  _153
REMARK   66  A    between atoms: _153  and  _154
REMARK   67  A    between atoms: _153  and  _156
REMARK   68  A    between atoms: _156  and  _157
REMARK   69  A    between atoms: _162  and  _164
REMARK   70  A    between atoms: _164  and  _165
REMARK   71  A    between atoms: _164  and  _167
REMARK   72  A    between atoms: _167  and  _168
REMARK   73  A    between atoms: _168  and  _169
REMARK   74  A    between atoms: _174  and  _176
REMARK   75  A    between atoms: _176  and  _177
REMARK   76  A    between atoms: _176  and  _179
REMARK   77  A    between atoms: _179  and  _180
REMARK   78  A    between atoms: _182  and  _184
REMARK   79  A    between atoms: _184  and  _185
REMARK   80  A    between atoms: _184  and  _187
REMARK   81  A    between atoms: _187  and  _188
REMARK   82  A    between atoms: _193  and  _194
REMARK   83  A    between atoms: _196  and  _198
REMARK   84  A    between atoms: _198  and  _199
REMARK   85  A    between atoms: _198  and  _201
REMARK   86  A    between atoms: _203  and  _205
REMARK   87  A    between atoms: _205  and  _206
REMARK   88  A    between atoms: _205  and  _208
REMARK   89  A    between atoms: _208  and  _209
REMARK   90  A    between atoms: _209  and  _210
REMARK   91  A    between atoms: _213  and  _215
REMARK   92  A    between atoms: _215  and  _216
REMARK   93  A    between atoms: _218  and  _220
REMARK   94  A    between atoms: _220  and  _221
REMARK   95  A    between atoms: _220  and  _223
REMARK   96  A    between atoms: _223  and  _224
REMARK   97  A    between atoms: _226  and  _228
REMARK   98  A    between atoms: _228  and  _229
REMARK   99  A    between atoms: _228  and  _231
REMARK  100  A    between atoms: _231  and  _232
REMARK  101  A    between atoms: _235  and  _237
REMARK  102  A    between atoms: _237  and  _238
REMARK  103  A    between atoms: _237  and  _240
REMARK  104  A    between atoms: _240  and  _241
REMARK  105  A    between atoms: _241  and  _242
REMARK  106  A    between atoms: _245  and  _247
REMARK  107  A    between atoms: _247  and  _248
REMARK  108  A    between atoms: _247  and  _250
REMARK  109  A    between atoms: _250  and  _251
REMARK  110  A    between atoms: _253  and  _255
REMARK  111  A    between atoms: _255  and  _256
REMARK  112  A    between atoms: _255  and  _258
REMARK  113  A    between atoms: _258  and  _259
REMARK  114  A    between atoms: _262  and  _264
REMARK  115  A    between atoms: _264  and  _265
REMARK  116  A    between atoms: _264  and  _267
REMARK  117  A    between atoms: _267  and  _268
REMARK  118  A    between atoms: _274  and  _276
REMARK  119  A    between atoms: _276  and  _277
REMARK  120  A    between atoms: _276  and  _279
REMARK  121  A    between atoms: _279  and  _280
REMARK  122  A    between atoms: _283  and  _285
REMARK  123  A    between atoms: _285  and  _286
REMARK  124  A    between atoms: _285  and  _288
REMARK  125  A    between atoms: _288  and  _289
REMARK  126  A    between atoms: _294  and  _295
REMARK  127  A    between atoms: _297  and  _299
REMARK  128  A    between atoms: _299  and  _300
REMARK  129  A    between atoms: _299  and  _302
REMARK  130  A    between atoms: _302  and  _303
REMARK  131  A    between atoms: _303  and  _304
REMARK  132  A    between atoms: _309  and  _311
REMARK  133  A    between atoms: _311  and  _312
REMARK  134  A    between atoms: _311  and  _314
REMARK  135  A    between atoms: _314  and  _315
REMARK  136  A    between atoms: _315  and  _316
REMARK  137  A    between atoms: _321  and  _323
REMARK  138  A    between atoms: _323  and  _324
REMARK  139  A    between atoms: _327  and  _329
REMARK  140  A    between atoms: _329  and  _330
REMARK  141  A    between atoms: _332  and  _334
REMARK  142  A    between atoms: _334  and  _335
REMARK  143  A    between atoms: _334  and  _337
REMARK  144  A    between atoms: _340  and  _342
REMARK  145  A    between atoms: _342  and  _343
REMARK  146  A    between atoms: _342  and  _345
REMARK  147  A    between atoms: _345  and  _346
REMARK  148  A    between atoms: _349  and  _351
REMARK  149  A    between atoms: _351  and  _352
REMARK  150  A    between atoms: _354  and  _356
REMARK  151  A    between atoms: _356  and  _357
REMARK  152  A    between atoms: _356  and  _359
REMARK  153  A    between atoms: _359  and  _360
REMARK  154  A    between atoms: _360  and  _361
REMARK  155  A    between atoms: _363  and  _365
REMARK  156  A    between atoms: _365  and  _366
REMARK  157  A    between atoms: _365  and  _368
REMARK  158  A    between atoms: _368  and  _369
REMARK  159  A    between atoms: _371  and  _373
REMARK  160  A    between atoms: _373  and  _374
REMARK  161  A    between atoms: _373  and  _376
REMARK  162  A    between atoms: _376  and  _377
REMARK  163  A    between atoms: _377  and  _378
REMARK  164  A    between atoms: _378  and  _379
REMARK  165  A    between atoms: _379  and  _380
REMARK  166  A    between atoms: _384  and  _386
REMARK  167  A    between atoms: _386  and  _387
REMARK  168  A    between atoms: _386  and  _389
REMARK  169  A    between atoms: _389  and  _390
REMARK  170  A    between atoms: _390  and  _391
REMARK  171  A    between atoms: _391  and  _392
REMARK  172  A    between atoms: _401  and  _403
REMARK  173  A    between atoms: _403  and  _404
REMARK  174  A    between atoms: _403  and  _406
REMARK  175  A    between atoms: _406  and  _407
REMARK  176  A    between atoms: _412  and  _413
REMARK  177  A    between atoms: _415  and  _417
REMARK  178  A    between atoms: _417  and  _418
REMARK  179  A    between atoms: _417  and  _420
REMARK  180  A    between atoms: _420  and  _421
REMARK  181  A    between atoms: _426  and  _427
REMARK  182  A    between atoms: _429  and  _431
REMARK  183  A    between atoms: _431  and  _432
REMARK  184  A    between atoms: _431  and  _434
REMARK  185  A    between atoms: _434  and  _435
REMARK  186  A    between atoms: _440  and  _441
REMARK  187  A    between atoms: _443  and  _445
REMARK  188  A    between atoms: _445  and  _446
REMARK  189  A    between atoms: _445  and  _448
REMARK  190  A    between atoms: _448  and  _449
REMARK  191  A    between atoms: _452  and  _454
REMARK  192  A    between atoms: _454  and  _455
REMARK  193  A    between atoms: _454  and  _457
REMARK  194  A    between atoms: _460  and  _462
REMARK  195  A    between atoms: _462  and  _463
REMARK  196  A    between atoms: _462  and  _465
REMARK  197  A    between atoms: _465  and  _466
REMARK  198  A    between atoms: _469  and  _471
REMARK  199  A    between atoms: _471  and  _472
REMARK  200  A    between atoms: _471  and  _474
REMARK  201  A    between atoms: _474  and  _475
REMARK  202  A    between atoms: _477  and  _479
REMARK  203  A    between atoms: _479  and  _480
REMARK  204  A    between atoms: _482  and  _484
REMARK  205  A    between atoms: _484  and  _485
REMARK  206  A    between atoms: _484  and  _487
REMARK  207  A    between atoms: _487  and  _488
REMARK  208  A    between atoms: _490  and  _492
REMARK  209  A    between atoms: _492  and  _493
REMARK  210  A    between atoms: _492  and  _495
REMARK  211  A    between atoms: _495  and  _496
REMARK  212  A    between atoms: _499  and  _501
REMARK  213  A    between atoms: _501  and  _502
REMARK  214  A    between atoms: _501  and  _504
REMARK  215  A    between atoms: _504  and  _505
REMARK  216  A    between atoms: _511  and  _513
REMARK  217  A    between atoms: _513  and  _514
REMARK  218  A    between atoms: _513  and  _516
REMARK  219  A    between atoms: _516  and  _517
REMARK  220  A    between atoms: _520  and  _522
REMARK  221  A    between atoms: _522  and  _523
REMARK  222  A    between atoms: _522  and  _525
REMARK  223  A    between atoms: _525  and  _526
REMARK  224  A    between atoms: _531  and  _533
REMARK  225  A    between atoms: _533  and  _534
REMARK  226  A    between atoms: _533  and  _536
REMARK  227  A    between atoms: _536  and  _537
REMARK  228  A    between atoms: _542  and  _543
REMARK  229  A    between atoms: _545  and  _547
REMARK  230  A    between atoms: _547  and  _548
REMARK  231  A    between atoms: _547  and  _550
REMARK  232  A    between atoms: _550  and  _551
REMARK  233  A    between atoms: _551  and  _552
REMARK  234  A    between atoms: _552  and  _553
REMARK  235  A    between atoms: _553  and  _554
REMARK  236  A    between atoms: _558  and  _560
REMARK  237  A    between atoms: _560  and  _561
REMARK  238  A    between atoms: _560  and  _563
REMARK  239  A    between atoms: _563  and  _564
REMARK  240  A    between atoms: _564  and  _565
REMARK  241  A    between atoms: _568  and  _570
REMARK  242  A    between atoms: _570  and  _571
REMARK  243  A    between atoms: _570  and  _573
REMARK  244  A    between atoms: _573  and  _574
REMARK  245  A    between atoms: _574  and  _575
REMARK  246  A    between atoms: _575  and  _576
REMARK  247  A    between atoms: _576  and  _577
REMARK  248  A    between atoms: _581  and  _583
REMARK  249  A    between atoms: _583  and  _584
REMARK  250  A    between atoms: _583  and  _586
REMARK  251  A    between atoms: _589  and  _591
REMARK  252  A    between atoms: _591  and  _592
REMARK  253  A    between atoms: _591  and  _594
REMARK  254  A    between atoms: _594  and  _595
REMARK  255  A    between atoms: _600  and  _602
REMARK  256  A    between atoms: _602  and  _603
REMARK  257  A    between atoms: _602  and  _605
REMARK  258  A    between atoms: _605  and  _606
REMARK  259  A    between atoms: _606  and  _607
REMARK  260  A    between atoms: _607  and  _608
REMARK  261  A    between atoms: _608  and  _609
REMARK  262  A    between atoms: _614  and  _615
REMARK  263  A    between atoms: _620  and  _622
REMARK  264  A    between atoms: _622  and  _623
REMARK  265  A    between atoms: _622  and  _625
REMARK  266  A    between atoms: _625  and  _626
REMARK  267  A    between atoms: _629  and  _631
REMARK  268  A    between atoms: _631  and  _632
REMARK  269  A    between atoms: _634  and  _636
REMARK  270  A    between atoms: _636  and  _637
REMARK  271  A    between atoms: _636  and  _639
REMARK  272  A    between atoms: _639  and  _640
REMARK                            x       y       z     vdW  Elec       q    Type
REMARK                         _______ _______ _______ _____ _____    ______ ____
ROOT
ATOM      1  CG  LYS A   1       7.032 114.480  39.284  0.00  0.00    -0.000 C 
ENDROOT
BRANCH   1   2
ATOM      2  CB  LYS A   1       8.000 113.714  40.203  0.00  0.00    +0.025 C 
BRANCH   2   3
ATOM      3  CA  LYS A   1       9.338 113.402  39.547  0.00  0.00    +0.133 C 
BRANCH   3   4
ATOM      4  N   LYS A   1      10.299 112.859  40.497  0.00  0.00    -0.239 NA
ATOM      5  H   LYS A   1      10.726 113.492  41.203  0.00  0.00    +0.142 HD
ENDBRANCH   3   4
BRANCH   3   6
ATOM      6  C   LYS A   1       9.950 114.654  38.965  0.00  0.00    +0.224 C 
ATOM      7  O   LYS A   1      10.111 115.664  39.662  0.00  0.00    -0.287 OA
ENDBRANCH   3   6
ENDBRANCH   2   3
ENDBRANCH   1   2
BRANCH   1   8
ATOM      8  CD  LYS A   1       5.640 114.613  39.907  0.00  0.00    -0.024 C 
BRANCH   8   9
ATOM      9  CE  LYS A   1       4.547 114.744  38.853  0.00  0.00    -0.086 C 
BRANCH   9  10
ATOM     10  NZ  LYS A   1       3.349 113.941  39.254  0.00  0.00    +0.380 N 
ATOM     11  HZ1 LYS A   1       2.989 114.289  40.166  0.00  0.00    -0.089 HD
ATOM     12  HZ2 LYS A   1       3.618 112.941  39.345  0.00  0.00    -0.089 HD
ATOM     13  HZ3 LYS A   1       2.610 114.037  38.529  0.00  0.00    -0.089 HD
ENDBRANCH   9  10
ENDBRANCH   8   9
ENDBRANCH   1   8
TORSDOF 7
REMARK  Name = ../refined-set-2016/4zl4/4zl4_pocket.pdb
REMARK  272 active torsions:
REMARK  status: ('A' for Active; 'I' for Inactive)
REMARK    1  A    between atoms: _1  and  _3
REMARK    2  A    between atoms: _3  and  _4
REMARK    3  A    between atoms: _3  and  _6
REMARK    4  A    between atoms: _6  and  _7
REMARK    5  A    between atoms: _10  and  _12
REMARK    6  A    between atoms: _12  and  _13
REMARK    7  A    between atoms: _12  and  _15
REMARK    8  A    between atoms: _15  and  _16
REMARK    9  A    between atoms: _19  and  _21
REMARK   10  A    between atoms: _21  and  _22
REMARK   11  A    between atoms: _21  and  _24
REMARK   12  A    between atoms: _24  and  _25
REMARK   13  A    between atoms: _28  and  _30
REMARK   14  A    between atoms: _30  and  _31
REMARK   15  A    between atoms: _30  and  _33
REMARK   16  A    between atoms: _33  and  _34
REMARK   17  A    between atoms: _34  and  _35
REMARK   18  A    between atoms: _38  and  _40
REMARK   19  A    between atoms: _40  and  _41
REMARK   20  A    between atoms: _40  and  _43
REMARK   21  A    between atoms: _43  and  _44
REMARK   22  A    between atoms: _49  and  _50
REMARK   23  A    between atoms: _52  and  _54
REMARK   24  A    between atoms: _54  and  _55
REMARK   25  A    between atoms: _58  and  _60
REMARK   26  A    between atoms: _60  and  _61
REMARK   27  A    between atoms: _60  and  _63
REMARK   28  A    between atoms: _63  and  _64
REMARK   29  A    between atoms: _69  and  _70
REMARK   30  A    between atoms: _72  and  _74
REMARK   31  A    between atoms: _74  and  _75
REMARK   32  A    between atoms: _74  and  _77
REMARK   33  A    between atoms: _77  and  _78
REMARK   34  A    between atoms: _83  and  _84
REMARK   35  A    between atoms: _86  and  _88
REMARK   36  A    between atoms: _88  and  _89
REMARK   37  A    between atoms: _88  and  _91
REMARK   38  A    between atoms: _91  and  _92
REMARK   39  A    between atoms: _95  and  _97
REMARK   40  A    between atoms: _97  and  _98
REMARK   41  A    between atoms: _97  and  _100
REMARK   42  A    between atoms: _100  and  _101
REMARK   43  A    between atoms: _104  and  _106
REMARK   44  A    between atoms: _106  and  _107
REMARK   45  A    between atoms: _106  and  _109
REMARK   46  A    between atoms: _109  and  _110
REMARK   47  A    between atoms: _113  and  _115
REMARK   48  A    between atoms: _115  and  _116
REMARK   49  A    between atoms: _115  and  _118
REMARK   50  A    between atoms: _118  and  _119
REMARK   51  A    between atoms: _122  and  _124
REMARK   52  A    between atoms: _124  and  _125
REMARK   53  A    between atoms: _127  and  _129
REMARK   54  A    between atoms: _129  and  _130
REMARK   55  A    between atoms: _129  and  _132
REMARK   56  A    between atoms: _132  and  _133
REMARK   57  A    between atoms: _135  and  _137
REMARK   58  A    between atoms: _137  and  _138
REMARK   59  A    between atoms: _137  and  _140
REMARK   60  A    between atoms: _140  and  _141
REMARK   61  A    between atoms: _143  and  _145
REMARK   62  A    between atoms: _145  and  _146
REMARK   63  A    between atoms: _145  and  _148
REMARK   64  A    between atoms: _148  and  _149
REMARK   65  A    between atoms: _151  and  _153
REMARK   66  A    between atoms: _153  and  _154
REMARK   67  A    between atoms: _153  and  _156
REMARK   68  A    between atoms: _156  and  _157
REMARK   69  A    between atoms: _162  and  _164
REMARK   70  A    between atoms: _164  and  _165
REMARK   71  A    between atoms: _164  and  _167
REMARK   72  A    between atoms: _167  and  _168
REMARK   73  A    between atoms: _168  and  _169
REMARK   74  A    between atoms: _174  and  _176
REMARK   75  A    between atoms: _176  and  _177
REMARK   76  A    between atoms: _176  and  _179
REMARK   77  A    between atoms: _179  and  _180
REMARK   78  A    between atoms: _182  and  _184
REMARK   79  A    between atoms: _184  and  _185
REMARK   80  A    between atoms: _184  and  _187
REMARK   81  A    between atoms: _187  and  _188
REMARK   82  A    between atoms: _193  and  _194
REMARK   83  A    between atoms: _196  and  _198
REMARK   84  A    between atoms: _198  and  _199
REMARK   85  A    between atoms: _198  and  _201
REMARK   86  A    between atoms: _203  and  _205
REMARK   87  A    between atoms: _205  and  _206
REMARK   88  A    between atoms: _205  and  _208
REMARK   89  A    between atoms: _208  and  _209
REMARK   90  A    between atoms: _209  and  _210
REMARK   91  A    between atoms: _213  and  _215
REMARK   92  A    between atoms: _215  and  _216
REMARK   93  A    between atoms: _218  and  _220
REMARK   94  A    between atoms: _220  and  _221
REMARK   95  A    between atoms: _220  and  _223
REMARK   96  A    between atoms: _223  and  _224
REMARK   97  A    between atoms: _226  and  _228
REMARK   98  A    between atoms: _228  and  _229
REMARK   99  A    between atoms: _228  and  _231
REMARK  100  A    between atoms: _231  and  _232
REMARK  101  A    between atoms: _235  and  _237
REMARK  102  A    between atoms: _237  and  _238
REMARK  103  A    between atoms: _237  and  _240
REMARK  104  A    between atoms: _240  and  _241
REMARK  105  A    between atoms: _241  and  _242
REMARK  106  A    between atoms: _245  and  _247
REMARK  107  A    between atoms: _247  and  _248
REMARK  108  A    between atoms: _247  and  _250
REMARK  109  A    between atoms: _250  and  _251
REMARK  110  A    between atoms: _253  and  _255
REMARK  111  A    between atoms: _255  and  _256
REMARK  112  A    between atoms: _255  and  _258
REMARK  113  A    between atoms: _258  and  _259
REMARK  114  A    between atoms: _262  and  _264
REMARK  115  A    between atoms: _264  and  _265
REMARK  116  A    between atoms: _264  and  _267
REMARK  117  A    between atoms: _267  and  _268
REMARK  118  A    between atoms: _274  and  _276
REMARK  119  A    between atoms: _276  and  _277
REMARK  120  A    between atoms: _276  and  _279
REMARK  121  A    between atoms: _279  and  _280
REMARK  122  A    between atoms: _283  and  _285
REMARK  123  A    between atoms: _285  and  _286
REMARK  124  A    between atoms: _285  and  _288
REMARK  125  A    between atoms: _288  and  _289
REMARK  126  A    between atoms: _294  and  _295
REMARK  127  A    between atoms: _297  and  _299
REMARK  128  A    between atoms: _299  and  _300
REMARK  129  A    between atoms: _299  and  _302
REMARK  130  A    between atoms: _302  and  _303
REMARK  131  A    between atoms: _303  and  _304
REMARK  132  A    between atoms: _309  and  _311
REMARK  133  A    between atoms: _311  and  _312
REMARK  134  A    between atoms: _311  and  _314
REMARK  135  A    between atoms: _314  and  _315
REMARK  136  A    between atoms: _315  and  _316
REMARK  137  A    between atoms: _321  and  _323
REMARK  138  A    between atoms: _323  and  _324
REMARK  139  A    between atoms: _327  and  _329
REMARK  140  A    between atoms: _329  and  _330
REMARK  141  A    between atoms: _332  and  _334
REMARK  142  A    between atoms: _334  and  _335
REMARK  143  A    between atoms: _334  and  _337
REMARK  144  A    between atoms: _340  and  _342
REMARK  145  A    between atoms: _342  and  _343
REMARK  146  A    between atoms: _342  and  _345
REMARK  147  A    between atoms: _345  and  _346
REMARK  148  A    between atoms: _349  and  _351
REMARK  149  A    between atoms: _351  and  _352
REMARK  150  A    between atoms: _354  and  _356
REMARK  151  A    between atoms: _356  and  _357
REMARK  152  A    between atoms: _356  and  _359
REMARK  153  A    between atoms: _359  and  _360
REMARK  154  A    between atoms: _360  and  _361
REMARK  155  A    between atoms: _363  and  _365
REMARK  156  A    between atoms: _365  and  _366
REMARK  157  A    between atoms: _365  and  _368
REMARK  158  A    between atoms: _368  and  _369
REMARK  159  A    between atoms: _371  and  _373
REMARK  160  A    between atoms: _373  and  _374
REMARK  161  A    between atoms: _373  and  _376
REMARK  162  A    between atoms: _376  and  _377
REMARK  163  A    between atoms: _377  and  _378
REMARK  164  A    between atoms: _378  and  _379
REMARK  165  A    between atoms: _379  and  _380
REMARK  166  A    between atoms: _384  and  _386
REMARK  167  A    between atoms: _386  and  _387
REMARK  168  A    between atoms: _386  and  _389
REMARK  169  A    between atoms: _389  and  _390
REMARK  170  A    between atoms: _390  and  _391
REMARK  171  A    between atoms: _391  and  _392
REMARK  172  A    between atoms: _401  and  _403
REMARK  173  A    between atoms: _403  and  _404
REMARK  174  A    between atoms: _403  and  _406
REMARK  175  A    between atoms: _406  and  _407
REMARK  176  A    between atoms: _412  and  _413
REMARK  177  A    between atoms: _415  and  _417
REMARK  178  A    between atoms: _417  and  _418
REMARK  179  A    between atoms: _417  and  _420
REMARK  180  A    between atoms: _420  and  _421
REMARK  181  A    between atoms: _426  and  _427
REMARK  182  A    between atoms: _429  and  _431
REMARK  183  A    between atoms: _431  and  _432
REMARK  184  A    between atoms: _431  and  _434
REMARK  185  A    between atoms: _434  and  _435
REMARK  186  A    between atoms: _440  and  _441
REMARK  187  A    between atoms: _443  and  _445
REMARK  188  A    between atoms: _445  and  _446
REMARK  189  A    between atoms: _445  and  _448
REMARK  190  A    between atoms: _448  and  _449
REMARK  191  A    between atoms: _452  and  _454
REMARK  192  A    between atoms: _454  and  _455
REMARK  193  A    between atoms: _454  and  _457
REMARK  194  A    between atoms: _460  and  _462
REMARK  195  A    between atoms: _462  and  _463
REMARK  196  A    between atoms: _462  and  _465
REMARK  197  A    between atoms: _465  and  _466
REMARK  198  A    between atoms: _469  and  _471
REMARK  199  A    between atoms: _471  and  _472
REMARK  200  A    between atoms: _471  and  _474
REMARK  201  A    between atoms: _474  and  _475
REMARK  202  A    between atoms: _477  and  _479
REMARK  203  A    between atoms: _479  and  _480
REMARK  204  A    between atoms: _482  and  _484
REMARK  205  A    between atoms: _484  and  _485
REMARK  206  A    between atoms: _484  and  _487
REMARK  207  A    between atoms: _487  and  _488
REMARK  208  A    between atoms: _490  and  _492
REMARK  209  A    between atoms: _492  and  _493
REMARK  210  A    between atoms: _492  and  _495
REMARK  211  A    between atoms: _495  and  _496
REMARK  212  A    between atoms: _499  and  _501
REMARK  213  A    between atoms: _501  and  _502
REMARK  214  A    between atoms: _501  and  _504
REMARK  215  A    between atoms: _504  and  _505
REMARK  216  A    between atoms: _511  and  _513
REMARK  217  A    between atoms: _513  and  _514
REMARK  218  A    between atoms: _513  and  _516
REMARK  219  A    between atoms: _516  and  _517
REMARK  220  A    between atoms: _520  and  _522
REMARK  221  A    between atoms: _522  and  _523
REMARK  222  A    between atoms: _522  and  _525
REMARK  223  A    between atoms: _525  and  _526
REMARK  224  A    between atoms: _531  and  _533
REMARK  225  A    between atoms: _533  and  _534
REMARK  226  A    between atoms: _533  and  _536
REMARK  227  A    between atoms: _536  and  _537
REMARK  228  A    between atoms: _542  and  _543
REMARK  229  A    between atoms: _545  and  _547
REMARK  230  A    between atoms: _547  and  _548
REMARK  231  A    between atoms: _547  and  _550
REMARK  232  A    between atoms: _550  and  _551
REMARK  233  A    between atoms: _551  and  _552
REMARK  234  A    between atoms: _552  and  _553
REMARK  235  A    between atoms: _553  and  _554
REMARK  236  A    between atoms: _558  and  _560
REMARK  237  A    between atoms: _560  and  _561
REMARK  238  A    between atoms: _560  and  _563
REMARK  239  A    between atoms: _563  and  _564
REMARK  240  A    between atoms: _564  and  _565
REMARK  241  A    between atoms: _568  and  _570
REMARK  242  A    between atoms: _570  and  _571
REMARK  243  A    between atoms: _570  and  _573
REMARK  244  A    between atoms: _573  and  _574
REMARK  245  A    between atoms: _574  and  _575
REMARK  246  A    between atoms: _575  and  _576
REMARK  247  A    between atoms: _576  and  _577
REMARK  248  A    between atoms: _581  and  _583
REMARK  249  A    between atoms: _583  and  _584
REMARK  250  A    between atoms: _583  and  _586
REMARK  251  A    between atoms: _589  and  _591
REMARK  252  A    between atoms: _591  and  _592
REMARK  253  A    between atoms: _591  and  _594
REMARK  254  A    between atoms: _594  and  _595
REMARK  255  A    between atoms: _600  and  _602
REMARK  256  A    between atoms: _602  and  _603
REMARK  257  A    between atoms: _602  and  _605
REMARK  258  A    between atoms: _605  and  _606
REMARK  259  A    between atoms: _606  and  _607
REMARK  260  A    between atoms: _607  and  _608
REMARK  261  A    between atoms: _608  and  _609
REMARK  262  A    between atoms: _614  and  _615
REMARK  263  A    between atoms: _620  and  _622
REMARK  264  A    between atoms: _622  and  _623
REMARK  265  A    between atoms: _622  and  _625
REMARK  266  A    between atoms: _625  and  _626
REMARK  267  A    between atoms: _629  and  _631
REMARK  268  A    between atoms: _631  and  _632
REMARK  269  A    between atoms: _634  and  _636
REMARK  270  A    between atoms: _636  and  _637
REMARK  271  A    between atoms: _636  and  _639
REMARK  272  A    between atoms: _639  and  _640
REMARK                            x       y       z     vdW  Elec       q    Type
REMARK                         _______ _______ _______ _____ _____    ______ ____
ROOT
ATOM      1  C   GLU A   1      -1.731 107.516  52.069  0.00  0.00    +0.238 C 
ATOM      2  O   GLU A   1      -1.398 106.534  52.737  0.00  0.00    -0.274 OA
ATOM      3  N   LYS A   2      -2.888 108.150  52.205  0.00  0.00    -0.298 N 
ATOM      4  H   LYS A   2      -3.011 109.064  51.725  0.00  0.00    +0.150 HD
ENDROOT
BRANCH   1   5
ATOM      5  CA  GLU A   1      -0.845 108.072  50.975  0.00  0.00    +0.145 C 
BRANCH   5   6
ATOM      6  N   GLU A   1       0.534 107.607  51.061  0.00  0.00    -0.238 NA
ATOM      7  H   GLU A   1       0.731 106.592  51.176  0.00  0.00    +0.142 HD
ENDBRANCH   5   6
BRANCH   5   8
ATOM      8  CB  GLU A   1      -1.493 107.697  49.643  0.00  0.00    +0.038 C 
BRANCH   8   9
ATOM      9  CG  GLU A   1      -0.798 108.103  48.362  0.00  0.00    +0.116 C 
BRANCH   9  10
ATOM     10  CD  GLU A   1      -1.649 107.723  47.148  0.00  0.00    +0.365 C 
ATOM     11  OE2 GLU A   1      -2.399 106.722  47.244  0.00  0.00    -0.246 OA
ATOM     12  OE1 GLU A   1      -1.561 108.400  46.101  0.00  0.00    -0.246 OA
ENDBRANCH   9  10
ENDBRANCH   8   9
ENDBRANCH   5   8
ENDBRANCH   1   5
BRANCH   3  13
ATOM     13  CA  LYS A   2      -3.988 107.630  52.990  0.00  0.00    +0.137 C 
BRANCH  13  14
ATOM     14  C   LYS A   2      -4.492 106.336  52.358  0.00  0.00    +0.227 C 
ATOM     15  O   LYS A   2      -4.424 106.162  51.149  0.00  0.00    -0.286 OA
ENDBRANCH  13  14
BRANCH  13  16
ATOM     16  CB  LYS A   2      -5.119 108.663  53.088  0.00  0.00    +0.028 C 
BRANCH  16  17
ATOM     17  CG  LYS A   2      -4.800 109.829  53.997  0.00  0.00    -0.000 C 
BRANCH  17  18
ATOM     18  CD  LYS A   2      -5.936 110.851  54.055  0.00  0.00    -0.024 C 
BRANCH  18  19
ATOM     19  CE  LYS A   2      -5.887 111.834  52.898  0.00  0.00    -0.086 C 
BRANCH  19  20
ATOM     20  NZ  LYS A   2      -7.020 112.794  52.979  0.00  0.00    +0.380 N 
ATOM     21  HZ1 LYS A   2      -6.962 113.322  53.873  0.00  0.00    -0.089 HD
ATOM     22  HZ2 LYS A   2      -7.919 112.272  52.941  0.00  0.00    -0.089 HD
ATOM     23  HZ3 LYS A   2      -6.969 113.457  52.180  0.00  0.00    -0.089 HD
ENDBRANCH  19  20
ENDBRANCH  18  19
ENDBRANCH  17  18
ENDBRANCH  16  17
ENDBRANCH  13  16
ENDBRANCH   3  13
TORSDOF 12
REMARK  Name = ../refined-set-2016/4zl4/4zl4_pocket.pdb
REMARK  272 active torsions:
REMARK  status: ('A' for Active; 'I' for Inactive)
REMARK    1  A    between atoms: _1  and  _3
REMARK    2  A    between atoms: _3  and  _4
REMARK    3  A    between atoms: _3  and  _6
REMARK    4  A    between atoms: _6  and  _7
REMARK    5  A    between atoms: _10  and  _12
REMARK    6  A    between atoms: _12  and  _13
REMARK    7  A    between atoms: _12  and  _15
REMARK    8  A    between atoms: _15  and  _16
REMARK    9  A    between atoms: _19  and  _21
REMARK   10  A    between atoms: _21  and  _22
REMARK   11  A    between atoms: _21  and  _24
REMARK   12  A    between atoms: _24  and  _25
REMARK   13  A    between atoms: _28  and  _30
REMARK   14  A    between atoms: _30  and  _31
REMARK   15  A    between atoms: _30  and  _33
REMARK   16  A    between atoms: _33  and  _34
REMARK   17  A    between atoms: _34  and  _35
REMARK   18  A    between atoms: _38  and  _40
REMARK   19  A    between atoms: _40  and  _41
REMARK   20  A    between atoms: _40  and  _43
REMARK   21  A    between atoms: _43  and  _44
REMARK   22  A    between atoms: _49  and  _50
REMARK   23  A    between atoms: _52  and  _54
REMARK   24  A    between atoms: _54  and  _55
REMARK   25  A    between atoms: _58  and  _60
REMARK   26  A    between atoms: _60  and  _61
REMARK   27  A    between atoms: _60  and  _63
REMARK   28  A    between atoms: _63  and  _64
REMARK   29  A    between atoms: _69  and  _70
REMARK   30  A    between atoms: _72  and  _74
REMARK   31  A    between atoms: _74  and  _75
REMARK   32  A    between atoms: _74  and  _77
REMARK   33  A    between atoms: _77  and  _78
REMARK   34  A    between atoms: _83  and  _84
REMARK   35  A    between atoms: _86  and  _88
REMARK   36  A    between atoms: _88  and  _89
REMARK   37  A    between atoms: _88  and  _91
REMARK   38  A    between atoms: _91  and  _92
REMARK   39  A    between atoms: _95  and  _97
REMARK   40  A    between atoms: _97  and  _98
REMARK   41  A    between atoms: _97  and  _100
REMARK   42  A    between atoms: _100  and  _101
REMARK   43  A    between atoms: _104  and  _106
REMARK   44  A    between atoms: _106  and  _107
REMARK   45  A    between atoms: _106  and  _109
REMARK   46  A    between atoms: _109  and  _110
REMARK   47  A    between atoms: _113  and  _115
REMARK   48  A    between atoms: _115  and  _116
REMARK   49  A    between atoms: _115  and  _118
REMARK   50  A    between atoms: _118  and  _119
REMARK   51  A    between atoms: _122  and  _124
REMARK   52  A    between atoms: _124  and  _125
REMARK   53  A    between atoms: _127  and  _129
REMARK   54  A    between atoms: _129  and  _130
REMARK   55  A    between atoms: _129  and  _132
REMARK   56  A    between atoms: _132  and  _133
REMARK   57  A    between atoms: _135  and  _137
REMARK   58  A    between atoms: _137  and  _138
REMARK   59  A    between atoms: _137  and  _140
REMARK   60  A    between atoms: _140  and  _141
REMARK   61  A    between atoms: _143  and  _145
REMARK   62  A    between atoms: _145  and  _146
REMARK   63  A    between atoms: _145  and  _148
REMARK   64  A    between atoms: _148  and  _149
REMARK   65  A    between atoms: _151  and  _153
REMARK   66  A    between atoms: _153  and  _154
REMARK   67  A    between atoms: _153  and  _156
REMARK   68  A    between atoms: _156  and  _157
REMARK   69  A    between atoms: _162  and  _164
REMARK   70  A    between atoms: _164  and  _165
REMARK   71  A    between atoms: _164  and  _167
REMARK   72  A    between atoms: _167  and  _168
REMARK   73  A    between atoms: _168  and  _169
REMARK   74  A    between atoms: _174  and  _176
REMARK   75  A    between atoms: _176  and  _177
REMARK   76  A    between atoms: _176  and  _179
REMARK   77  A    between atoms: _179  and  _180
REMARK   78  A    between atoms: _182  and  _184
REMARK   79  A    between atoms: _184  and  _185
REMARK   80  A    between atoms: _184  and  _187
REMARK   81  A    between atoms: _187  and  _188
REMARK   82  A    between atoms: _193  and  _194
REMARK   83  A    between atoms: _196  and  _198
REMARK   84  A    between atoms: _198  and  _199
REMARK   85  A    between atoms: _198  and  _201
REMARK   86  A    between atoms: _203  and  _205
REMARK   87  A    between atoms: _205  and  _206
REMARK   88  A    between atoms: _205  and  _208
REMARK   89  A    between atoms: _208  and  _209
REMARK   90  A    between atoms: _209  and  _210
REMARK   91  A    between atoms: _213  and  _215
REMARK   92  A    between atoms: _215  and  _216
REMARK   93  A    between atoms: _218  and  _220
REMARK   94  A    between atoms: _220  and  _221
REMARK   95  A    between atoms: _220  and  _223
REMARK   96  A    between atoms: _223  and  _224
REMARK   97  A    between atoms: _226  and  _228
REMARK   98  A    between atoms: _228  and  _229
REMARK   99  A    between atoms: _228  and  _231
REMARK  100  A    between atoms: _231  and  _232
REMARK  101  A    between atoms: _235  and  _237
REMARK  102  A    between atoms: _237  and  _238
REMARK  103  A    between atoms: _237  and  _240
REMARK  104  A    between atoms: _240  and  _241
REMARK  105  A    between atoms: _241  and  _242
REMARK  106  A    between atoms: _245  and  _247
REMARK  107  A    between atoms: _247  and  _248
REMARK  108  A    between atoms: _247  and  _250
REMARK  109  A    between atoms: _250  and  _251
REMARK  110  A    between atoms: _253  and  _255
REMARK  111  A    between atoms: _255  and  _256
REMARK  112  A    between atoms: _255  and  _258
REMARK  113  A    between atoms: _258  and  _259
REMARK  114  A    between atoms: _262  and  _264
REMARK  115  A    between atoms: _264  and  _265
REMARK  116  A    between atoms: _264  and  _267
REMARK  117  A    between atoms: _267  and  _268
REMARK  118  A    between atoms: _274  and  _276
REMARK  119  A    between atoms: _276  and  _277
REMARK  120  A    between atoms: _276  and  _279
REMARK  121  A    between atoms: _279  and  _280
REMARK  122  A    between atoms: _283  and  _285
REMARK  123  A    between atoms: _285  and  _286
REMARK  124  A    between atoms: _285  and  _288
REMARK  125  A    between atoms: _288  and  _289
REMARK  126  A    between atoms: _294  and  _295
REMARK  127  A    between atoms: _297  and  _299
REMARK  128  A    between atoms: _299  and  _300
REMARK  129  A    between atoms: _299  and  _302
REMARK  130  A    between atoms: _302  and  _303
REMARK  131  A    between atoms: _303  and  _304
REMARK  132  A    between atoms: _309  and  _311
REMARK  133  A    between atoms: _311  and  _312
REMARK  134  A    between atoms: _311  and  _314
REMARK  135  A    between atoms: _314  and  _315
REMARK  136  A    between atoms: _315  and  _316
REMARK  137  A    between atoms: _321  and  _323
REMARK  138  A    between atoms: _323  and  _324
REMARK  139  A    between atoms: _327  and  _329
REMARK  140  A    between atoms: _329  and  _330
REMARK  141  A    between atoms: _332  and  _334
REMARK  142  A    between atoms: _334  and  _335
REMARK  143  A    between atoms: _334  and  _337
REMARK  144  A    between atoms: _340  and  _342
REMARK  145  A    between atoms: _342  and  _343
REMARK  146  A    between atoms: _342  and  _345
REMARK  147  A    between atoms: _345  and  _346
REMARK  148  A    between atoms: _349  and  _351
REMARK  149  A    between atoms: _351  and  _352
REMARK  150  A    between atoms: _354  and  _356
REMARK  151  A    between atoms: _356  and  _357
REMARK  152  A    between atoms: _356  and  _359
REMARK  153  A    between atoms: _359  and  _360
REMARK  154  A    between atoms: _360  and  _361
REMARK  155  A    between atoms: _363  and  _365
REMARK  156  A    between atoms: _365  and  _366
REMARK  157  A    between atoms: _365  and  _368
REMARK  158  A    between atoms: _368  and  _369
REMARK  159  A    between atoms: _371  and  _373
REMARK  160  A    between atoms: _373  and  _374
REMARK  161  A    between atoms: _373  and  _376
REMARK  162  A    between atoms: _376  and  _377
REMARK  163  A    between atoms: _377  and  _378
REMARK  164  A    between atoms: _378  and  _379
REMARK  165  A    between atoms: _379  and  _380
REMARK  166  A    between atoms: _384  and  _386
REMARK  167  A    between atoms: _386  and  _387
REMARK  168  A    between atoms: _386  and  _389
REMARK  169  A    between atoms: _389  and  _390
REMARK  170  A    between atoms: _390  and  _391
REMARK  171  A    between atoms: _391  and  _392
REMARK  172  A    between atoms: _401  and  _403
REMARK  173  A    between atoms: _403  and  _404
REMARK  174  A    between atoms: _403  and  _406
REMARK  175  A    between atoms: _406  and  _407
REMARK  176  A    between atoms: _412  and  _413
REMARK  177  A    between atoms: _415  and  _417
REMARK  178  A    between atoms: _417  and  _418
REMARK  179  A    between atoms: _417  and  _420
REMARK  180  A    between atoms: _420  and  _421
REMARK  181  A    between atoms: _426  and  _427
REMARK  182  A    between atoms: _429  and  _431
REMARK  183  A    between atoms: _431  and  _432
REMARK  184  A    between atoms: _431  and  _434
REMARK  185  A    between atoms: _434  and  _435
REMARK  186  A    between atoms: _440  and  _441
REMARK  187  A    between atoms: _443  and  _445
REMARK  188  A    between atoms: _445  and  _446
REMARK  189  A    between atoms: _445  and  _448
REMARK  190  A    between atoms: _448  and  _449
REMARK  191  A    between atoms: _452  and  _454
REMARK  192  A    between atoms: _454  and  _455
REMARK  193  A    between atoms: _454  and  _457
REMARK  194  A    between atoms: _460  and  _462
REMARK  195  A    between atoms: _462  and  _463
REMARK  196  A    between atoms: _462  and  _465
REMARK  197  A    between atoms: _465  and  _466
REMARK  198  A    between atoms: _469  and  _471
REMARK  199  A    between atoms: _471  and  _472
REMARK  200  A    between atoms: _471  and  _474
REMARK  201  A    between atoms: _474  and  _475
REMARK  202  A    between atoms: _477  and  _479
REMARK  203  A    between atoms: _479  and  _480
REMARK  204  A    between atoms: _482  and  _484
REMARK  205  A    between atoms: _484  and  _485
REMARK  206  A    between atoms: _484  and  _487
REMARK  207  A    between atoms: _487  and  _488
REMARK  208  A    between atoms: _490  and  _492
REMARK  209  A    between atoms: _492  and  _493
REMARK  210  A    between atoms: _492  and  _495
REMARK  211  A    between atoms: _495  and  _496
REMARK  212  A    between atoms: _499  and  _501
REMARK  213  A    between atoms: _501  and  _502
REMARK  214  A    between atoms: _501  and  _504
REMARK  215  A    between atoms: _504  and  _505
REMARK  216  A    between atoms: _511  and  _513
REMARK  217  A    between atoms: _513  and  _514
REMARK  218  A    between atoms: _513  and  _516
REMARK  219  A    between atoms: _516  and  _517
REMARK  220  A    between atoms: _520  and  _522
REMARK  221  A    between atoms: _522  and  _523
REMARK  222  A    between atoms: _522  and  _525
REMARK  223  A    between atoms: _525  and  _526
REMARK  224  A    between atoms: _531  and  _533
REMARK  225  A    between atoms: _533  and  _534
REMARK  226  A    between atoms: _533  and  _536
REMARK  227  A    between atoms: _536  and  _537
REMARK  228  A    between atoms: _542  and  _543
REMARK  229  A    between atoms: _545  and  _547
REMARK  230  A    between atoms: _547  and  _548
REMARK  231  A    between atoms: _547  and  _550
REMARK  232  A    between atoms: _550  and  _551
REMARK  233  A    between atoms: _551  and  _552
REMARK  234  A    between atoms: _552  and  _553
REMARK  235  A    between atoms: _553  and  _554
REMARK  236  A    between atoms: _558  and  _560
REMARK  237  A    between atoms: _560  and  _561
REMARK  238  A    between atoms: _560  and  _563
REMARK  239  A    between atoms: _563  and  _564
REMARK  240  A    between atoms: _564  and  _565
REMARK  241  A    between atoms: _568  and  _570
REMARK  242  A    between atoms: _570  and  _571
REMARK  243  A    between atoms: _570  and  _573
REMARK  244  A    between atoms: _573  and  _574
REMARK  245  A    between atoms: _574  and  _575
REMARK  246  A    between atoms: _575  and  _576
REMARK  247  A    between atoms: _576  and  _577
REMARK  248  A    between atoms: _581  and  _583
REMARK  249  A    between atoms: _583  and  _584
REMARK  250  A    between atoms: _583  and  _586
REMARK  251  A    between atoms: _589  and  _591
REMARK  252  A    between atoms: _591  and  _592
REMARK  253  A    between atoms: _591  and  _594
REMARK  254  A    between atoms: _594  and  _595
REMARK  255  A    between atoms: _600  and  _602
REMARK  256  A    between atoms: _602  and  _603
REMARK  257  A    between atoms: _602  and  _605
REMARK  258  A    between atoms: _605  and  _606
REMARK  259  A    between atoms: _606  and  _607
REMARK  260  A    between atoms: _607  and  _608
REMARK  261  A    between atoms: _608  and  _609
REMARK  262  A    between atoms: _614  and  _615
REMARK  263  A    between atoms: _620  and  _622
REMARK  264  A    between atoms: _622  and  _623
REMARK  265  A    between atoms: _622  and  _625
REMARK  266  A    between atoms: _625  and  _626
REMARK  267  A    between atoms: _629  and  _631
REMARK  268  A    between atoms: _631  and  _632
REMARK  269  A    between atoms: _634  and  _636
REMARK  270  A    between atoms: _636  and  _637
REMARK  271  A    between atoms: _636  and  _639
REMARK  272  A    between atoms: _639  and  _640
REMARK                            x       y       z     vdW  Elec       q    Type
REMARK                         _______ _______ _______ _____ _____    ______ ____
ROOT
ATOM      1  C   VAL A   1      -9.111 101.759  51.320  0.00  0.00    +0.238 C 
ATOM      2  N   ASN A   2     -10.349 101.666  51.789  0.00  0.00    -0.298 N 
ATOM      3  H   ASN A   2     -10.886 102.545  51.935  0.00  0.00    +0.150 HD
ATOM      4  O   VAL A   1      -8.352 100.799  51.208  0.00  0.00    -0.274 OA
ENDROOT
BRANCH   1   5
ATOM      5  CA  VAL A   1      -8.644 103.168  50.957  0.00  0.00    +0.145 C 
BRANCH   5   6
ATOM      6  CB  VAL A   1      -8.864 103.459  49.463  0.00  0.00    +0.025 C 
ATOM      7  CG2 VAL A   1     -10.346 103.486  49.138  0.00  0.00    +0.002 C 
ATOM      8  CG1 VAL A   1      -8.221 104.795  49.100  0.00  0.00    +0.002 C 
ENDBRANCH   5   6
BRANCH   5   9
ATOM      9  N   VAL A   1      -7.244 103.307  51.336  0.00  0.00    -0.238 NA
ATOM     10  H   VAL A   1      -6.538 102.676  50.906  0.00  0.00    +0.142 HD
ENDBRANCH   5   9
ENDBRANCH   1   5
BRANCH   2  11
ATOM     11  CA  ASN A   2     -11.000 100.400  52.111  0.00  0.00    +0.146 C 
BRANCH  11  12
ATOM     12  C   ASN A   2     -10.361  99.726  53.307  0.00  0.00    +0.227 C 
ATOM     13  O   ASN A   2     -10.407  98.504  53.428  0.00  0.00    -0.286 OA
ENDBRANCH  11  12
BRANCH  11  14
ATOM     14  CB  ASN A   2     -10.967  99.437  50.916  0.00  0.00    +0.112 C 
BRANCH  14  15
ATOM     15  CG  ASN A   2     -11.691  99.977  49.703  0.00  0.00    +0.222 C 
ATOM     16  ND2 ASN A   2     -12.968 100.318  49.870  0.00  0.00    -0.329 N 
ATOM     17 HD21 ASN A   2     -13.415 100.218  50.804  0.00  0.00    +0.145 HD
ATOM     18 HD22 ASN A   2     -13.518 100.685  49.067  0.00  0.00    +0.145 HD
ATOM     19  OD1 ASN A   2     -11.110 100.075  48.619  0.00  0.00    -0.275 OA
ENDBRANCH  14  15
ENDBRANCH  11  14
ENDBRANCH   2  11
TORSDOF 7
REMARK  Name = ../refined-set-2016/4zl4/4zl4_pocket.pdb
REMARK  272 active torsions:
REMARK  status: ('A' for Active; 'I' for Inactive)
REMARK    1  A    between atoms: _1  and  _3
REMARK    2  A    between atoms: _3  and  _4
REMARK    3  A    between atoms: _3  and  _6
REMARK    4  A    between atoms: _6  and  _7
REMARK    5  A    between atoms: _10  and  _12
REMARK    6  A    between atoms: _12  and  _13
REMARK    7  A    between atoms: _12  and  _15
REMARK    8  A    between atoms: _15  and  _16
REMARK    9  A    between atoms: _19  and  _21
REMARK   10  A    between atoms: _21  and  _22
REMARK   11  A    between atoms: _21  and  _24
REMARK   12  A    between atoms: _24  and  _25
REMARK   13  A    between atoms: _28  and  _30
REMARK   14  A    between atoms: _30  and  _31
REMARK   15  A    between atoms: _30  and  _33
REMARK   16  A    between atoms: _33  and  _34
REMARK   17  A    between atoms: _34  and  _35
REMARK   18  A    between atoms: _38  and  _40
REMARK   19  A    between atoms: _40  and  _41
REMARK   20  A    between atoms: _40  and  _43
REMARK   21  A    between atoms: _43  and  _44
REMARK   22  A    between atoms: _49  and  _50
REMARK   23  A    between atoms: _52  and  _54
REMARK   24  A    between atoms: _54  and  _55
REMARK   25  A    between atoms: _58  and  _60
REMARK   26  A    between atoms: _60  and  _61
REMARK   27  A    between atoms: _60  and  _63
REMARK   28  A    between atoms: _63  and  _64
REMARK   29  A    between atoms: _69  and  _70
REMARK   30  A    between atoms: _72  and  _74
REMARK   31  A    between atoms: _74  and  _75
REMARK   32  A    between atoms: _74  and  _77
REMARK   33  A    between atoms: _77  and  _78
REMARK   34  A    between atoms: _83  and  _84
REMARK   35  A    between atoms: _86  and  _88
REMARK   36  A    between atoms: _88  and  _89
REMARK   37  A    between atoms: _88  and  _91
REMARK   38  A    between atoms: _91  and  _92
REMARK   39  A    between atoms: _95  and  _97
REMARK   40  A    between atoms: _97  and  _98
REMARK   41  A    between atoms: _97  and  _100
REMARK   42  A    between atoms: _100  and  _101
REMARK   43  A    between atoms: _104  and  _106
REMARK   44  A    between atoms: _106  and  _107
REMARK   45  A    between atoms: _106  and  _109
REMARK   46  A    between atoms: _109  and  _110
REMARK   47  A    between atoms: _113  and  _115
REMARK   48  A    between atoms: _115  and  _116
REMARK   49  A    between atoms: _115  and  _118
REMARK   50  A    between atoms: _118  and  _119
REMARK   51  A    between atoms: _122  and  _124
REMARK   52  A    between atoms: _124  and  _125
REMARK   53  A    between atoms: _127  and  _129
REMARK   54  A    between atoms: _129  and  _130
REMARK   55  A    between atoms: _129  and  _132
REMARK   56  A    between atoms: _132  and  _133
REMARK   57  A    between atoms: _135  and  _137
REMARK   58  A    between atoms: _137  and  _138
REMARK   59  A    between atoms: _137  and  _140
REMARK   60  A    between atoms: _140  and  _141
REMARK   61  A    between atoms: _143  and  _145
REMARK   62  A    between atoms: _145  and  _146
REMARK   63  A    between atoms: _145  and  _148
REMARK   64  A    between atoms: _148  and  _149
REMARK   65  A    between atoms: _151  and  _153
REMARK   66  A    between atoms: _153  and  _154
REMARK   67  A    between atoms: _153  and  _156
REMARK   68  A    between atoms: _156  and  _157
REMARK   69  A    between atoms: _162  and  _164
REMARK   70  A    between atoms: _164  and  _165
REMARK   71  A    between atoms: _164  and  _167
REMARK   72  A    between atoms: _167  and  _168
REMARK   73  A    between atoms: _168  and  _169
REMARK   74  A    between atoms: _174  and  _176
REMARK   75  A    between atoms: _176  and  _177
REMARK   76  A    between atoms: _176  and  _179
REMARK   77  A    between atoms: _179  and  _180
REMARK   78  A    between atoms: _182  and  _184
REMARK   79  A    between atoms: _184  and  _185
REMARK   80  A    between atoms: _184  and  _187
REMARK   81  A    between atoms: _187  and  _188
REMARK   82  A    between atoms: _193  and  _194
REMARK   83  A    between atoms: _196  and  _198
REMARK   84  A    between atoms: _198  and  _199
REMARK   85  A    between atoms: _198  and  _201
REMARK   86  A    between atoms: _203  and  _205
REMARK   87  A    between atoms: _205  and  _206
REMARK   88  A    between atoms: _205  and  _208
REMARK   89  A    between atoms: _208  and  _209
REMARK   90  A    between atoms: _209  and  _210
REMARK   91  A    between atoms: _213  and  _215
REMARK   92  A    between atoms: _215  and  _216
REMARK   93  A    between atoms: _218  and  _220
REMARK   94  A    between atoms: _220  and  _221
REMARK   95  A    between atoms: _220  and  _223
REMARK   96  A    between atoms: _223  and  _224
REMARK   97  A    between atoms: _226  and  _228
REMARK   98  A    between atoms: _228  and  _229
REMARK   99  A    between atoms: _228  and  _231
REMARK  100  A    between atoms: _231  and  _232
REMARK  101  A    between atoms: _235  and  _237
REMARK  102  A    between atoms: _237  and  _238
REMARK  103  A    between atoms: _237  and  _240
REMARK  104  A    between atoms: _240  and  _241
REMARK  105  A    between atoms: _241  and  _242
REMARK  106  A    between atoms: _245  and  _247
REMARK  107  A    between atoms: _247  and  _248
REMARK  108  A    between atoms: _247  and  _250
REMARK  109  A    between atoms: _250  and  _251
REMARK  110  A    between atoms: _253  and  _255
REMARK  111  A    between atoms: _255  and  _256
REMARK  112  A    between atoms: _255  and  _258
REMARK  113  A    between atoms: _258  and  _259
REMARK  114  A    between atoms: _262  and  _264
REMARK  115  A    between atoms: _264  and  _265
REMARK  116  A    between atoms: _264  and  _267
REMARK  117  A    between atoms: _267  and  _268
REMARK  118  A    between atoms: _274  and  _276
REMARK  119  A    between atoms: _276  and  _277
REMARK  120  A    between atoms: _276  and  _279
REMARK  121  A    between atoms: _279  and  _280
REMARK  122  A    between atoms: _283  and  _285
REMARK  123  A    between atoms: _285  and  _286
REMARK  124  A    between atoms: _285  and  _288
REMARK  125  A    between atoms: _288  and  _289
REMARK  126  A    between atoms: _294  and  _295
REMARK  127  A    between atoms: _297  and  _299
REMARK  128  A    between atoms: _299  and  _300
REMARK  129  A    between atoms: _299  and  _302
REMARK  130  A    between atoms: _302  and  _303
REMARK  131  A    between atoms: _303  and  _304
REMARK  132  A    between atoms: _309  and  _311
REMARK  133  A    between atoms: _311  and  _312
REMARK  134  A    between atoms: _311  and  _314
REMARK  135  A    between atoms: _314  and  _315
REMARK  136  A    between atoms: _315  and  _316
REMARK  137  A    between atoms: _321  and  _323
REMARK  138  A    between atoms: _323  and  _324
REMARK  139  A    between atoms: _327  and  _329
REMARK  140  A    between atoms: _329  and  _330
REMARK  141  A    between atoms: _332  and  _334
REMARK  142  A    between atoms: _334  and  _335
REMARK  143  A    between atoms: _334  and  _337
REMARK  144  A    between atoms: _340  and  _342
REMARK  145  A    between atoms: _342  and  _343
REMARK  146  A    between atoms: _342  and  _345
REMARK  147  A    between atoms: _345  and  _346
REMARK  148  A    between atoms: _349  and  _351
REMARK  149  A    between atoms: _351  and  _352
REMARK  150  A    between atoms: _354  and  _356
REMARK  151  A    between atoms: _356  and  _357
REMARK  152  A    between atoms: _356  and  _359
REMARK  153  A    between atoms: _359  and  _360
REMARK  154  A    between atoms: _360  and  _361
REMARK  155  A    between atoms: _363  and  _365
REMARK  156  A    between atoms: _365  and  _366
REMARK  157  A    between atoms: _365  and  _368
REMARK  158  A    between atoms: _368  and  _369
REMARK  159  A    between atoms: _371  and  _373
REMARK  160  A    between atoms: _373  and  _374
REMARK  161  A    between atoms: _373  and  _376
REMARK  162  A    between atoms: _376  and  _377
REMARK  163  A    between atoms: _377  and  _378
REMARK  164  A    between atoms: _378  and  _379
REMARK  165  A    between atoms: _379  and  _380
REMARK  166  A    between atoms: _384  and  _386
REMARK  167  A    between atoms: _386  and  _387
REMARK  168  A    between atoms: _386  and  _389
REMARK  169  A    between atoms: _389  and  _390
REMARK  170  A    between atoms: _390  and  _391
REMARK  171  A    between atoms: _391  and  _392
REMARK  172  A    between atoms: _401  and  _403
REMARK  173  A    between atoms: _403  and  _404
REMARK  174  A    between atoms: _403  and  _406
REMARK  175  A    between atoms: _406  and  _407
REMARK  176  A    between atoms: _412  and  _413
REMARK  177  A    between atoms: _415  and  _417
REMARK  178  A    between atoms: _417  and  _418
REMARK  179  A    between atoms: _417  and  _420
REMARK  180  A    between atoms: _420  and  _421
REMARK  181  A    between atoms: _426  and  _427
REMARK  182  A    between atoms: _429  and  _431
REMARK  183  A    between atoms: _431  and  _432
REMARK  184  A    between atoms: _431  and  _434
REMARK  185  A    between atoms: _434  and  _435
REMARK  186  A    between atoms: _440  and  _441
REMARK  187  A    between atoms: _443  and  _445
REMARK  188  A    between atoms: _445  and  _446
REMARK  189  A    between atoms: _445  and  _448
REMARK  190  A    between atoms: _448  and  _449
REMARK  191  A    between atoms: _452  and  _454
REMARK  192  A    between atoms: _454  and  _455
REMARK  193  A    between atoms: _454  and  _457
REMARK  194  A    between atoms: _460  and  _462
REMARK  195  A    between atoms: _462  and  _463
REMARK  196  A    between atoms: _462  and  _465
REMARK  197  A    between atoms: _465  and  _466
REMARK  198  A    between atoms: _469  and  _471
REMARK  199  A    between atoms: _471  and  _472
REMARK  200  A    between atoms: _471  and  _474
REMARK  201  A    between atoms: _474  and  _475
REMARK  202  A    between atoms: _477  and  _479
REMARK  203  A    between atoms: _479  and  _480
REMARK  204  A    between atoms: _482  and  _484
REMARK  205  A    between atoms: _484  and  _485
REMARK  206  A    between atoms: _484  and  _487
REMARK  207  A    between atoms: _487  and  _488
REMARK  208  A    between atoms: _490  and  _492
REMARK  209  A    between atoms: _492  and  _493
REMARK  210  A    between atoms: _492  and  _495
REMARK  211  A    between atoms: _495  and  _496
REMARK  212  A    between atoms: _499  and  _501
REMARK  213  A    between atoms: _501  and  _502
REMARK  214  A    between atoms: _501  and  _504
REMARK  215  A    between atoms: _504  and  _505
REMARK  216  A    between atoms: _511  and  _513
REMARK  217  A    between atoms: _513  and  _514
REMARK  218  A    between atoms: _513  and  _516
REMARK  219  A    between atoms: _516  and  _517
REMARK  220  A    between atoms: _520  and  _522
REMARK  221  A    between atoms: _522  and  _523
REMARK  222  A    between atoms: _522  and  _525
REMARK  223  A    between atoms: _525  and  _526
REMARK  224  A    between atoms: _531  and  _533
REMARK  225  A    between atoms: _533  and  _534
REMARK  226  A    between atoms: _533  and  _536
REMARK  227  A    between atoms: _536  and  _537
REMARK  228  A    between atoms: _542  and  _543
REMARK  229  A    between atoms: _545  and  _547
REMARK  230  A    between atoms: _547  and  _548
REMARK  231  A    between atoms: _547  and  _550
REMARK  232  A    between atoms: _550  and  _551
REMARK  233  A    between atoms: _551  and  _552
REMARK  234  A    between atoms: _552  and  _553
REMARK  235  A    between atoms: _553  and  _554
REMARK  236  A    between atoms: _558  and  _560
REMARK  237  A    between atoms: _560  and  _561
REMARK  238  A    between atoms: _560  and  _563
REMARK  239  A    between atoms: _563  and  _564
REMARK  240  A    between atoms: _564  and  _565
REMARK  241  A    between atoms: _568  and  _570
REMARK  242  A    between atoms: _570  and  _571
REMARK  243  A    between atoms: _570  and  _573
REMARK  244  A    between atoms: _573  and  _574
REMARK  245  A    between atoms: _574  and  _575
REMARK  246  A    between atoms: _575  and  _576
REMARK  247  A    between atoms: _576  and  _577
REMARK  248  A    between atoms: _581  and  _583
REMARK  249  A    between atoms: _583  and  _584
REMARK  250  A    between atoms: _583  and  _586
REMARK  251  A    between atoms: _589  and  _591
REMARK  252  A    between atoms: _591  and  _592
REMARK  253  A    between atoms: _591  and  _594
REMARK  254  A    between atoms: _594  and  _595
REMARK  255  A    between atoms: _600  and  _602
REMARK  256  A    between atoms: _602  and  _603
REMARK  257  A    between atoms: _602  and  _605
REMARK  258  A    between atoms: _605  and  _606
REMARK  259  A    between atoms: _606  and  _607
REMARK  260  A    between atoms: _607  and  _608
REMARK  261  A    between atoms: _608  and  _609
REMARK  262  A    between atoms: _614  and  _615
REMARK  263  A    between atoms: _620  and  _622
REMARK  264  A    between atoms: _622  and  _623
REMARK  265  A    between atoms: _622  and  _625
REMARK  266  A    between atoms: _625  and  _626
REMARK  267  A    between atoms: _629  and  _631
REMARK  268  A    between atoms: _631  and  _632
REMARK  269  A    between atoms: _634  and  _636
REMARK  270  A    between atoms: _636  and  _637
REMARK  271  A    between atoms: _636  and  _639
REMARK  272  A    between atoms: _639  and  _640
REMARK                            x       y       z     vdW  Elec       q    Type
REMARK                         _______ _______ _______ _____ _____    ______ ____
ROOT
ATOM      1  C   LYS A   1      -4.766  99.089  53.626  0.00  0.00    +0.241 C 
ATOM      2  N   PRO A   2      -4.046  98.838  54.724  0.00  0.00    -0.272 N 
ATOM      3  CD  PRO A   2      -4.487  98.154  55.954  0.00  0.00    +0.094 C 
ATOM      4  CG  PRO A   2      -3.227  98.054  56.763  0.00  0.00    +0.024 C 
ATOM      5  CB  PRO A   2      -2.293  99.146  56.268  0.00  0.00    +0.031 C 
ATOM      6  CA  PRO A   2      -2.652  99.312  54.792  0.00  0.00    +0.152 C 
ATOM      7  O   LYS A   1      -4.364  99.833  52.736  0.00  0.00    -0.273 OA
ENDROOT
BRANCH   6   8
ATOM      8  C   PRO A   2      -1.723  98.483  53.887  0.00  0.00    +0.241 C 
ATOM      9  O   PRO A   2      -1.789  97.252  53.857  0.00  0.00    -0.273 OA
ATOM     10  N   ILE A   3      -0.881  99.179  53.133  0.00  0.00    -0.298 N 
ATOM     11  H   ILE A   3      -0.804 100.205  53.284  0.00  0.00    +0.150 HD
BRANCH  10  12
ATOM     12  CA  ILE A   3      -0.062  98.559  52.104  0.00  0.00    +0.137 C 
BRANCH  12  13
ATOM     13  C   ILE A   3       1.345  99.150  52.098  0.00  0.00    +0.227 C 
ATOM     14  O   ILE A   3       1.512 100.370  52.004  0.00  0.00    -0.286 OA
ENDBRANCH  12  13
BRANCH  12  15
ATOM     15  CB  ILE A   3      -0.689  98.744  50.700  0.00  0.00    +0.026 C 
ATOM     16  CG2 ILE A   3       0.191  98.168  49.617  0.00  0.00    +0.002 C 
BRANCH  15  17
ATOM     17  CG1 ILE A   3      -2.096  98.150  50.649  0.00  0.00    +0.002 C 
ATOM     18  CD1 ILE A   3      -2.783  98.414  49.361  0.00  0.00    +0.000 C 
ENDBRANCH  15  17
ENDBRANCH  12  15
ENDBRANCH  10  12
ENDBRANCH   6   8
BRANCH   1  19
ATOM     19  CA  LYS A   1      -6.126  98.411  53.514  0.00  0.00    +0.145 C 
BRANCH  19  20
ATOM     20  N   LYS A   1      -7.217  99.290  53.939  0.00  0.00    -0.238 NA
ATOM     21  H   LYS A   1      -7.370 100.190  53.441  0.00  0.00    +0.142 HD
ENDBRANCH  19  20
BRANCH  19  22
ATOM     22  CB  LYS A   1      -6.325  97.936  52.068  0.00  0.00    +0.026 C 
BRANCH  22  23
ATOM     23  CG  LYS A   1      -7.685  97.288  51.755  0.00  0.00    -0.000 C 
BRANCH  23  24
ATOM     24  CD  LYS A   1      -7.974  96.088  52.620  0.00  0.00    -0.024 C 
BRANCH  24  25
ATOM     25  CE  LYS A   1      -9.097  95.243  52.015  0.00  0.00    -0.086 C 
BRANCH  25  26
ATOM     26  NZ  LYS A   1     -10.306  96.048  51.663  0.00  0.00    +0.380 N 
ATOM     27  HZ1 LYS A   1     -10.679  96.504  52.520  0.00  0.00    -0.089 HD
ATOM     28  HZ2 LYS A   1     -11.032  95.423  51.258  0.00  0.00    -0.089 HD
ATOM     29  HZ3 LYS A   1     -10.046  96.775  50.967  0.00  0.00    -0.089 HD
ENDBRANCH  25  26
ENDBRANCH  24  25
ENDBRANCH  23  24
ENDBRANCH  22  23
ENDBRANCH  19  22
ENDBRANCH   1  19
TORSDOF 12
REMARK  Name = ../refined-set-2016/4zl4/4zl4_pocket.pdb
REMARK  272 active torsions:
REMARK  status: ('A' for Active; 'I' for Inactive)
REMARK    1  A    between atoms: _1  and  _3
REMARK    2  A    between atoms: _3  and  _4
REMARK    3  A    between atoms: _3  and  _6
REMARK    4  A    between atoms: _6  and  _7
REMARK    5  A    between atoms: _10  and  _12
REMARK    6  A    between atoms: _12  and  _13
REMARK    7  A    between atoms: _12  and  _15
REMARK    8  A    between atoms: _15  and  _16
REMARK    9  A    between atoms: _19  and  _21
REMARK   10  A    between atoms: _21  and  _22
REMARK   11  A    between atoms: _21  and  _24
REMARK   12  A    between atoms: _24  and  _25
REMARK   13  A    between atoms: _28  and  _30
REMARK   14  A    between atoms: _30  and  _31
REMARK   15  A    between atoms: _30  and  _33
REMARK   16  A    between atoms: _33  and  _34
REMARK   17  A    between atoms: _34  and  _35
REMARK   18  A    between atoms: _38  and  _40
REMARK   19  A    between atoms: _40  and  _41
REMARK   20  A    between atoms: _40  and  _43
REMARK   21  A    between atoms: _43  and  _44
REMARK   22  A    between atoms: _49  and  _50
REMARK   23  A    between atoms: _52  and  _54
REMARK   24  A    between atoms: _54  and  _55
REMARK   25  A    between atoms: _58  and  _60
REMARK   26  A    between atoms: _60  and  _61
REMARK   27  A    between atoms: _60  and  _63
REMARK   28  A    between atoms: _63  and  _64
REMARK   29  A    between atoms: _69  and  _70
REMARK   30  A    between atoms: _72  and  _74
REMARK   31  A    between atoms: _74  and  _75
REMARK   32  A    between atoms: _74  and  _77
REMARK   33  A    between atoms: _77  and  _78
REMARK   34  A    between atoms: _83  and  _84
REMARK   35  A    between atoms: _86  and  _88
REMARK   36  A    between atoms: _88  and  _89
REMARK   37  A    between atoms: _88  and  _91
REMARK   38  A    between atoms: _91  and  _92
REMARK   39  A    between atoms: _95  and  _97
REMARK   40  A    between atoms: _97  and  _98
REMARK   41  A    between atoms: _97  and  _100
REMARK   42  A    between atoms: _100  and  _101
REMARK   43  A    between atoms: _104  and  _106
REMARK   44  A    between atoms: _106  and  _107
REMARK   45  A    between atoms: _106  and  _109
REMARK   46  A    between atoms: _109  and  _110
REMARK   47  A    between atoms: _113  and  _115
REMARK   48  A    between atoms: _115  and  _116
REMARK   49  A    between atoms: _115  and  _118
REMARK   50  A    between atoms: _118  and  _119
REMARK   51  A    between atoms: _122  and  _124
REMARK   52  A    between atoms: _124  and  _125
REMARK   53  A    between atoms: _127  and  _129
REMARK   54  A    between atoms: _129  and  _130
REMARK   55  A    between atoms: _129  and  _132
REMARK   56  A    between atoms: _132  and  _133
REMARK   57  A    between atoms: _135  and  _137
REMARK   58  A    between atoms: _137  and  _138
REMARK   59  A    between atoms: _137  and  _140
REMARK   60  A    between atoms: _140  and  _141
REMARK   61  A    between atoms: _143  and  _145
REMARK   62  A    between atoms: _145  and  _146
REMARK   63  A    between atoms: _145  and  _148
REMARK   64  A    between atoms: _148  and  _149
REMARK   65  A    between atoms: _151  and  _153
REMARK   66  A    between atoms: _153  and  _154
REMARK   67  A    between atoms: _153  and  _156
REMARK   68  A    between atoms: _156  and  _157
REMARK   69  A    between atoms: _162  and  _164
REMARK   70  A    between atoms: _164  and  _165
REMARK   71  A    between atoms: _164  and  _167
REMARK   72  A    between atoms: _167  and  _168
REMARK   73  A    between atoms: _168  and  _169
REMARK   74  A    between atoms: _174  and  _176
REMARK   75  A    between atoms: _176  and  _177
REMARK   76  A    between atoms: _176  and  _179
REMARK   77  A    between atoms: _179  and  _180
REMARK   78  A    between atoms: _182  and  _184
REMARK   79  A    between atoms: _184  and  _185
REMARK   80  A    between atoms: _184  and  _187
REMARK   81  A    between atoms: _187  and  _188
REMARK   82  A    between atoms: _193  and  _194
REMARK   83  A    between atoms: _196  and  _198
REMARK   84  A    between atoms: _198  and  _199
REMARK   85  A    between atoms: _198  and  _201
REMARK   86  A    between atoms: _203  and  _205
REMARK   87  A    between atoms: _205  and  _206
REMARK   88  A    between atoms: _205  and  _208
REMARK   89  A    between atoms: _208  and  _209
REMARK   90  A    between atoms: _209  and  _210
REMARK   91  A    between atoms: _213  and  _215
REMARK   92  A    between atoms: _215  and  _216
REMARK   93  A    between atoms: _218  and  _220
REMARK   94  A    between atoms: _220  and  _221
REMARK   95  A    between atoms: _220  and  _223
REMARK   96  A    between atoms: _223  and  _224
REMARK   97  A    between atoms: _226  and  _228
REMARK   98  A    between atoms: _228  and  _229
REMARK   99  A    between atoms: _228  and  _231
REMARK  100  A    between atoms: _231  and  _232
REMARK  101  A    between atoms: _235  and  _237
REMARK  102  A    between atoms: _237  and  _238
REMARK  103  A    between atoms: _237  and  _240
REMARK  104  A    between atoms: _240  and  _241
REMARK  105  A    between atoms: _241  and  _242
REMARK  106  A    between atoms: _245  and  _247
REMARK  107  A    between atoms: _247  and  _248
REMARK  108  A    between atoms: _247  and  _250
REMARK  109  A    between atoms: _250  and  _251
REMARK  110  A    between atoms: _253  and  _255
REMARK  111  A    between atoms: _255  and  _256
REMARK  112  A    between atoms: _255  and  _258
REMARK  113  A    between atoms: _258  and  _259
REMARK  114  A    between atoms: _262  and  _264
REMARK  115  A    between atoms: _264  and  _265
REMARK  116  A    between atoms: _264  and  _267
REMARK  117  A    between atoms: _267  and  _268
REMARK  118  A    between atoms: _274  and  _276
REMARK  119  A    between atoms: _276  and  _277
REMARK  120  A    between atoms: _276  and  _279
REMARK  121  A    between atoms: _279  and  _280
REMARK  122  A    between atoms: _283  and  _285
REMARK  123  A    between atoms: _285  and  _286
REMARK  124  A    between atoms: _285  and  _288
REMARK  125  A    between atoms: _288  and  _289
REMARK  126  A    between atoms: _294  and  _295
REMARK  127  A    between atoms: _297  and  _299
REMARK  128  A    between atoms: _299  and  _300
REMARK  129  A    between atoms: _299  and  _302
REMARK  130  A    between atoms: _302  and  _303
REMARK  131  A    between atoms: _303  and  _304
REMARK  132  A    between atoms: _309  and  _311
REMARK  133  A    between atoms: _311  and  _312
REMARK  134  A    between atoms: _311  and  _314
REMARK  135  A    between atoms: _314  and  _315
REMARK  136  A    between atoms: _315  and  _316
REMARK  137  A    between atoms: _321  and  _323
REMARK  138  A    between atoms: _323  and  _324
REMARK  139  A    between atoms: _327  and  _329
REMARK  140  A    between atoms: _329  and  _330
REMARK  141  A    between atoms: _332  and  _334
REMARK  142  A    between atoms: _334  and  _335
REMARK  143  A    between atoms: _334  and  _337
REMARK  144  A    between atoms: _340  and  _342
REMARK  145  A    between atoms: _342  and  _343
REMARK  146  A    between atoms: _342  and  _345
REMARK  147  A    between atoms: _345  and  _346
REMARK  148  A    between atoms: _349  and  _351
REMARK  149  A    between atoms: _351  and  _352
REMARK  150  A    between atoms: _354  and  _356
REMARK  151  A    between atoms: _356  and  _357
REMARK  152  A    between atoms: _356  and  _359
REMARK  153  A    between atoms: _359  and  _360
REMARK  154  A    between atoms: _360  and  _361
REMARK  155  A    between atoms: _363  and  _365
REMARK  156  A    between atoms: _365  and  _366
REMARK  157  A    between atoms: _365  and  _368
REMARK  158  A    between atoms: _368  and  _369
REMARK  159  A    between atoms: _371  and  _373
REMARK  160  A    between atoms: _373  and  _374
REMARK  161  A    between atoms: _373  and  _376
REMARK  162  A    between atoms: _376  and  _377
REMARK  163  A    between atoms: _377  and  _378
REMARK  164  A    between atoms: _378  and  _379
REMARK  165  A    between atoms: _379  and  _380
REMARK  166  A    between atoms: _384  and  _386
REMARK  167  A    between atoms: _386  and  _387
REMARK  168  A    between atoms: _386  and  _389
REMARK  169  A    between atoms: _389  and  _390
REMARK  170  A    between atoms: _390  and  _391
REMARK  171  A    between atoms: _391  and  _392
REMARK  172  A    between atoms: _401  and  _403
REMARK  173  A    between atoms: _403  and  _404
REMARK  174  A    between atoms: _403  and  _406
REMARK  175  A    between atoms: _406  and  _407
REMARK  176  A    between atoms: _412  and  _413
REMARK  177  A    between atoms: _415  and  _417
REMARK  178  A    between atoms: _417  and  _418
REMARK  179  A    between atoms: _417  and  _420
REMARK  180  A    between atoms: _420  and  _421
REMARK  181  A    between atoms: _426  and  _427
REMARK  182  A    between atoms: _429  and  _431
REMARK  183  A    between atoms: _431  and  _432
REMARK  184  A    between atoms: _431  and  _434
REMARK  185  A    between atoms: _434  and  _435
REMARK  186  A    between atoms: _440  and  _441
REMARK  187  A    between atoms: _443  and  _445
REMARK  188  A    between atoms: _445  and  _446
REMARK  189  A    between atoms: _445  and  _448
REMARK  190  A    between atoms: _448  and  _449
REMARK  191  A    between atoms: _452  and  _454
REMARK  192  A    between atoms: _454  and  _455
REMARK  193  A    between atoms: _454  and  _457
REMARK  194  A    between atoms: _460  and  _462
REMARK  195  A    between atoms: _462  and  _463
REMARK  196  A    between atoms: _462  and  _465
REMARK  197  A    between atoms: _465  and  _466
REMARK  198  A    between atoms: _469  and  _471
REMARK  199  A    between atoms: _471  and  _472
REMARK  200  A    between atoms: _471  and  _474
REMARK  201  A    between atoms: _474  and  _475
REMARK  202  A    between atoms: _477  and  _479
REMARK  203  A    between atoms: _479  and  _480
REMARK  204  A    between atoms: _482  and  _484
REMARK  205  A    between atoms: _484  and  _485
REMARK  206  A    between atoms: _484  and  _487
REMARK  207  A    between atoms: _487  and  _488
REMARK  208  A    between atoms: _490  and  _492
REMARK  209  A    between atoms: _492  and  _493
REMARK  210  A    between atoms: _492  and  _495
REMARK  211  A    between atoms: _495  and  _496
REMARK  212  A    between atoms: _499  and  _501
REMARK  213  A    between atoms: _501  and  _502
REMARK  214  A    between atoms: _501  and  _504
REMARK  215  A    between atoms: _504  and  _505
REMARK  216  A    between atoms: _511  and  _513
REMARK  217  A    between atoms: _513  and  _514
REMARK  218  A    between atoms: _513  and  _516
REMARK  219  A    between atoms: _516  and  _517
REMARK  220  A    between atoms: _520  and  _522
REMARK  221  A    between atoms: _522  and  _523
REMARK  222  A    between atoms: _522  and  _525
REMARK  223  A    between atoms: _525  and  _526
REMARK  224  A    between atoms: _531  and  _533
REMARK  225  A    between atoms: _533  and  _534
REMARK  226  A    between atoms: _533  and  _536
REMARK  227  A    between atoms: _536  and  _537
REMARK  228  A    between atoms: _542  and  _543
REMARK  229  A    between atoms: _545  and  _547
REMARK  230  A    between atoms: _547  and  _548
REMARK  231  A    between atoms: _547  and  _550
REMARK  232  A    between atoms: _550  and  _551
REMARK  233  A    between atoms: _551  and  _552
REMARK  234  A    between atoms: _552  and  _553
REMARK  235  A    between atoms: _553  and  _554
REMARK  236  A    between atoms: _558  and  _560
REMARK  237  A    between atoms: _560  and  _561
REMARK  238  A    between atoms: _560  and  _563
REMARK  239  A    between atoms: _563  and  _564
REMARK  240  A    between atoms: _564  and  _565
REMARK  241  A    between atoms: _568  and  _570
REMARK  242  A    between atoms: _570  and  _571
REMARK  243  A    between atoms: _570  and  _573
REMARK  244  A    between atoms: _573  and  _574
REMARK  245  A    between atoms: _574  and  _575
REMARK  246  A    between atoms: _575  and  _576
REMARK  247  A    between atoms: _576  and  _577
REMARK  248  A    between atoms: _581  and  _583
REMARK  249  A    between atoms: _583  and  _584
REMARK  250  A    between atoms: _583  and  _586
REMARK  251  A    between atoms: _589  and  _591
REMARK  252  A    between atoms: _591  and  _592
REMARK  253  A    between atoms: _591  and  _594
REMARK  254  A    between atoms: _594  and  _595
REMARK  255  A    between atoms: _600  and  _602
REMARK  256  A    between atoms: _602  and  _603
REMARK  257  A    between atoms: _602  and  _605
REMARK  258  A    between atoms: _605  and  _606
REMARK  259  A    between atoms: _606  and  _607
REMARK  260  A    between atoms: _607  and  _608
REMARK  261  A    between atoms: _608  and  _609
REMARK  262  A    between atoms: _614  and  _615
REMARK  263  A    between atoms: _620  and  _622
REMARK  264  A    between atoms: _622  and  _623
REMARK  265  A    between atoms: _622  and  _625
REMARK  266  A    between atoms: _625  and  _626
REMARK  267  A    between atoms: _629  and  _631
REMARK  268  A    between atoms: _631  and  _632
REMARK  269  A    between atoms: _634  and  _636
REMARK  270  A    between atoms: _636  and  _637
REMARK  271  A    between atoms: _636  and  _639
REMARK  272  A    between atoms: _639  and  _640
REMARK                            x       y       z     vdW  Elec       q    Type
REMARK                         _______ _______ _______ _____ _____    ______ ____
ROOT
ATOM      1  C   GLY A   1       5.609  99.850  47.826  0.00  0.00    +0.240 C 
ATOM      2  O   GLY A   1       6.560  99.698  48.576  0.00  0.00    -0.274 OA
ATOM      3  N   LEU A   2       5.730 100.203  46.549  0.00  0.00    -0.298 N 
ATOM      4  H   LEU A   2       4.869 100.379  45.993  0.00  0.00    +0.150 HD
ENDROOT
BRANCH   1   5
ATOM      5  CA  GLY A   1       4.203  99.653  48.346  0.00  0.00    +0.169 C 
BRANCH   5   6
ATOM      6  N   GLY A   1       4.137  99.648  49.797  0.00  0.00    -0.236 NA
ATOM      7  H   GLY A   1       4.174 100.551  50.312  0.00  0.00    +0.142 HD
ENDBRANCH   5   6
ENDBRANCH   1   5
BRANCH   3   8
ATOM      8  CA  LEU A   2       7.029 100.352  45.902  0.00  0.00    +0.137 C 
BRANCH   8   9
ATOM      9  C   LEU A   2       7.970 101.352  46.598  0.00  0.00    +0.227 C 
ATOM     10  O   LEU A   2       9.189 101.143  46.589  0.00  0.00    -0.286 OA
ENDBRANCH   8   9
BRANCH   8  11
ATOM     11  CB  LEU A   2       6.843 100.756  44.438  0.00  0.00    +0.028 C 
BRANCH  11  12
ATOM     12  CG  LEU A   2       6.367  99.609  43.535  0.00  0.00    +0.002 C 
ATOM     13  CD2 LEU A   2       7.451  98.549  43.463  0.00  0.00    +0.000 C 
ATOM     14  CD1 LEU A   2       5.983 100.090  42.135  0.00  0.00    +0.000 C 
ENDBRANCH  11  12
ENDBRANCH   8  11
ENDBRANCH   3   8
TORSDOF 6
REMARK  Name = ../refined-set-2016/4zl4/4zl4_pocket.pdb
REMARK  272 active torsions:
REMARK  status: ('A' for Active; 'I' for Inactive)
REMARK    1  A    between atoms: _1  and  _3
REMARK    2  A    between atoms: _3  and  _4
REMARK    3  A    between atoms: _3  and  _6
REMARK    4  A    between atoms: _6  and  _7
REMARK    5  A    between atoms: _10  and  _12
REMARK    6  A    between atoms: _12  and  _13
REMARK    7  A    between atoms: _12  and  _15
REMARK    8  A    between atoms: _15  and  _16
REMARK    9  A    between atoms: _19  and  _21
REMARK   10  A    between atoms: _21  and  _22
REMARK   11  A    between atoms: _21  and  _24
REMARK   12  A    between atoms: _24  and  _25
REMARK   13  A    between atoms: _28  and  _30
REMARK   14  A    between atoms: _30  and  _31
REMARK   15  A    between atoms: _30  and  _33
REMARK   16  A    between atoms: _33  and  _34
REMARK   17  A    between atoms: _34  and  _35
REMARK   18  A    between atoms: _38  and  _40
REMARK   19  A    between atoms: _40  and  _41
REMARK   20  A    between atoms: _40  and  _43
REMARK   21  A    between atoms: _43  and  _44
REMARK   22  A    between atoms: _49  and  _50
REMARK   23  A    between atoms: _52  and  _54
REMARK   24  A    between atoms: _54  and  _55
REMARK   25  A    between atoms: _58  and  _60
REMARK   26  A    between atoms: _60  and  _61
REMARK   27  A    between atoms: _60  and  _63
REMARK   28  A    between atoms: _63  and  _64
REMARK   29  A    between atoms: _69  and  _70
REMARK   30  A    between atoms: _72  and  _74
REMARK   31  A    between atoms: _74  and  _75
REMARK   32  A    between atoms: _74  and  _77
REMARK   33  A    between atoms: _77  and  _78
REMARK   34  A    between atoms: _83  and  _84
REMARK   35  A    between atoms: _86  and  _88
REMARK   36  A    between atoms: _88  and  _89
REMARK   37  A    between atoms: _88  and  _91
REMARK   38  A    between atoms: _91  and  _92
REMARK   39  A    between atoms: _95  and  _97
REMARK   40  A    between atoms: _97  and  _98
REMARK   41  A    between atoms: _97  and  _100
REMARK   42  A    between atoms: _100  and  _101
REMARK   43  A    between atoms: _104  and  _106
REMARK   44  A    between atoms: _106  and  _107
REMARK   45  A    between atoms: _106  and  _109
REMARK   46  A    between atoms: _109  and  _110
REMARK   47  A    between atoms: _113  and  _115
REMARK   48  A    between atoms: _115  and  _116
REMARK   49  A    between atoms: _115  and  _118
REMARK   50  A    between atoms: _118  and  _119
REMARK   51  A    between atoms: _122  and  _124
REMARK   52  A    between atoms: _124  and  _125
REMARK   53  A    between atoms: _127  and  _129
REMARK   54  A    between atoms: _129  and  _130
REMARK   55  A    between atoms: _129  and  _132
REMARK   56  A    between atoms: _132  and  _133
REMARK   57  A    between atoms: _135  and  _137
REMARK   58  A    between atoms: _137  and  _138
REMARK   59  A    between atoms: _137  and  _140
REMARK   60  A    between atoms: _140  and  _141
REMARK   61  A    between atoms: _143  and  _145
REMARK   62  A    between atoms: _145  and  _146
REMARK   63  A    between atoms: _145  and  _148
REMARK   64  A    between atoms: _148  and  _149
REMARK   65  A    between atoms: _151  and  _153
REMARK   66  A    between atoms: _153  and  _154
REMARK   67  A    between atoms: _153  and  _156
REMARK   68  A    between atoms: _156  and  _157
REMARK   69  A    between atoms: _162  and  _164
REMARK   70  A    between atoms: _164  and  _165
REMARK   71  A    between atoms: _164  and  _167
REMARK   72  A    between atoms: _167  and  _168
REMARK   73  A    between atoms: _168  and  _169
REMARK   74  A    between atoms: _174  and  _176
REMARK   75  A    between atoms: _176  and  _177
REMARK   76  A    between atoms: _176  and  _179
REMARK   77  A    between atoms: _179  and  _180
REMARK   78  A    between atoms: _182  and  _184
REMARK   79  A    between atoms: _184  and  _185
REMARK   80  A    between atoms: _184  and  _187
REMARK   81  A    between atoms: _187  and  _188
REMARK   82  A    between atoms: _193  and  _194
REMARK   83  A    between atoms: _196  and  _198
REMARK   84  A    between atoms: _198  and  _199
REMARK   85  A    between atoms: _198  and  _201
REMARK   86  A    between atoms: _203  and  _205
REMARK   87  A    between atoms: _205  and  _206
REMARK   88  A    between atoms: _205  and  _208
REMARK   89  A    between atoms: _208  and  _209
REMARK   90  A    between atoms: _209  and  _210
REMARK   91  A    between atoms: _213  and  _215
REMARK   92  A    between atoms: _215  and  _216
REMARK   93  A    between atoms: _218  and  _220
REMARK   94  A    between atoms: _220  and  _221
REMARK   95  A    between atoms: _220  and  _223
REMARK   96  A    between atoms: _223  and  _224
REMARK   97  A    between atoms: _226  and  _228
REMARK   98  A    between atoms: _228  and  _229
REMARK   99  A    between atoms: _228  and  _231
REMARK  100  A    between atoms: _231  and  _232
REMARK  101  A    between atoms: _235  and  _237
REMARK  102  A    between atoms: _237  and  _238
REMARK  103  A    between atoms: _237  and  _240
REMARK  104  A    between atoms: _240  and  _241
REMARK  105  A    between atoms: _241  and  _242
REMARK  106  A    between atoms: _245  and  _247
REMARK  107  A    between atoms: _247  and  _248
REMARK  108  A    between atoms: _247  and  _250
REMARK  109  A    between atoms: _250  and  _251
REMARK  110  A    between atoms: _253  and  _255
REMARK  111  A    between atoms: _255  and  _256
REMARK  112  A    between atoms: _255  and  _258
REMARK  113  A    between atoms: _258  and  _259
REMARK  114  A    between atoms: _262  and  _264
REMARK  115  A    between atoms: _264  and  _265
REMARK  116  A    between atoms: _264  and  _267
REMARK  117  A    between atoms: _267  and  _268
REMARK  118  A    between atoms: _274  and  _276
REMARK  119  A    between atoms: _276  and  _277
REMARK  120  A    between atoms: _276  and  _279
REMARK  121  A    between atoms: _279  and  _280
REMARK  122  A    between atoms: _283  and  _285
REMARK  123  A    between atoms: _285  and  _286
REMARK  124  A    between atoms: _285  and  _288
REMARK  125  A    between atoms: _288  and  _289
REMARK  126  A    between atoms: _294  and  _295
REMARK  127  A    between atoms: _297  and  _299
REMARK  128  A    between atoms: _299  and  _300
REMARK  129  A    between atoms: _299  and  _302
REMARK  130  A    between atoms: _302  and  _303
REMARK  131  A    between atoms: _303  and  _304
REMARK  132  A    between atoms: _309  and  _311
REMARK  133  A    between atoms: _311  and  _312
REMARK  134  A    between atoms: _311  and  _314
REMARK  135  A    between atoms: _314  and  _315
REMARK  136  A    between atoms: _315  and  _316
REMARK  137  A    between atoms: _321  and  _323
REMARK  138  A    between atoms: _323  and  _324
REMARK  139  A    between atoms: _327  and  _329
REMARK  140  A    between atoms: _329  and  _330
REMARK  141  A    between atoms: _332  and  _334
REMARK  142  A    between atoms: _334  and  _335
REMARK  143  A    between atoms: _334  and  _337
REMARK  144  A    between atoms: _340  and  _342
REMARK  145  A    between atoms: _342  and  _343
REMARK  146  A    between atoms: _342  and  _345
REMARK  147  A    between atoms: _345  and  _346
REMARK  148  A    between atoms: _349  and  _351
REMARK  149  A    between atoms: _351  and  _352
REMARK  150  A    between atoms: _354  and  _356
REMARK  151  A    between atoms: _356  and  _357
REMARK  152  A    between atoms: _356  and  _359
REMARK  153  A    between atoms: _359  and  _360
REMARK  154  A    between atoms: _360  and  _361
REMARK  155  A    between atoms: _363  and  _365
REMARK  156  A    between atoms: _365  and  _366
REMARK  157  A    between atoms: _365  and  _368
REMARK  158  A    between atoms: _368  and  _369
REMARK  159  A    between atoms: _371  and  _373
REMARK  160  A    between atoms: _373  and  _374
REMARK  161  A    between atoms: _373  and  _376
REMARK  162  A    between atoms: _376  and  _377
REMARK  163  A    between atoms: _377  and  _378
REMARK  164  A    between atoms: _378  and  _379
REMARK  165  A    between atoms: _379  and  _380
REMARK  166  A    between atoms: _384  and  _386
REMARK  167  A    between atoms: _386  and  _387
REMARK  168  A    between atoms: _386  and  _389
REMARK  169  A    between atoms: _389  and  _390
REMARK  170  A    between atoms: _390  and  _391
REMARK  171  A    between atoms: _391  and  _392
REMARK  172  A    between atoms: _401  and  _403
REMARK  173  A    between atoms: _403  and  _404
REMARK  174  A    between atoms: _403  and  _406
REMARK  175  A    between atoms: _406  and  _407
REMARK  176  A    between atoms: _412  and  _413
REMARK  177  A    between atoms: _415  and  _417
REMARK  178  A    between atoms: _417  and  _418
REMARK  179  A    between atoms: _417  and  _420
REMARK  180  A    between atoms: _420  and  _421
REMARK  181  A    between atoms: _426  and  _427
REMARK  182  A    between atoms: _429  and  _431
REMARK  183  A    between atoms: _431  and  _432
REMARK  184  A    between atoms: _431  and  _434
REMARK  185  A    between atoms: _434  and  _435
REMARK  186  A    between atoms: _440  and  _441
REMARK  187  A    between atoms: _443  and  _445
REMARK  188  A    between atoms: _445  and  _446
REMARK  189  A    between atoms: _445  and  _448
REMARK  190  A    between atoms: _448  and  _449
REMARK  191  A    between atoms: _452  and  _454
REMARK  192  A    between atoms: _454  and  _455
REMARK  193  A    between atoms: _454  and  _457
REMARK  194  A    between atoms: _460  and  _462
REMARK  195  A    between atoms: _462  and  _463
REMARK  196  A    between atoms: _462  and  _465
REMARK  197  A    between atoms: _465  and  _466
REMARK  198  A    between atoms: _469  and  _471
REMARK  199  A    between atoms: _471  and  _472
REMARK  200  A    between atoms: _471  and  _474
REMARK  201  A    between atoms: _474  and  _475
REMARK  202  A    between atoms: _477  and  _479
REMARK  203  A    between atoms: _479  and  _480
REMARK  204  A    between atoms: _482  and  _484
REMARK  205  A    between atoms: _484  and  _485
REMARK  206  A    between atoms: _484  and  _487
REMARK  207  A    between atoms: _487  and  _488
REMARK  208  A    between atoms: _490  and  _492
REMARK  209  A    between atoms: _492  and  _493
REMARK  210  A    between atoms: _492  and  _495
REMARK  211  A    between atoms: _495  and  _496
REMARK  212  A    between atoms: _499  and  _501
REMARK  213  A    between atoms: _501  and  _502
REMARK  214  A    between atoms: _501  and  _504
REMARK  215  A    between atoms: _504  and  _505
REMARK  216  A    between atoms: _511  and  _513
REMARK  217  A    between atoms: _513  and  _514
REMARK  218  A    between atoms: _513  and  _516
REMARK  219  A    between atoms: _516  and  _517
REMARK  220  A    between atoms: _520  and  _522
REMARK  221  A    between atoms: _522  and  _523
REMARK  222  A    between atoms: _522  and  _525
REMARK  223  A    between atoms: _525  and  _526
REMARK  224  A    between atoms: _531  and  _533
REMARK  225  A    between atoms: _533  and  _534
REMARK  226  A    between atoms: _533  and  _536
REMARK  227  A    between atoms: _536  and  _537
REMARK  228  A    between atoms: _542  and  _543
REMARK  229  A    between atoms: _545  and  _547
REMARK  230  A    between atoms: _547  and  _548
REMARK  231  A    between atoms: _547  and  _550
REMARK  232  A    between atoms: _550  and  _551
REMARK  233  A    between atoms: _551  and  _552
REMARK  234  A    between atoms: _552  and  _553
REMARK  235  A    between atoms: _553  and  _554
REMARK  236  A    between atoms: _558  and  _560
REMARK  237  A    between atoms: _560  and  _561
REMARK  238  A    between atoms: _560  and  _563
REMARK  239  A    between atoms: _563  and  _564
REMARK  240  A    between atoms: _564  and  _565
REMARK  241  A    between atoms: _568  and  _570
REMARK  242  A    between atoms: _570  and  _571
REMARK  243  A    between atoms: _570  and  _573
REMARK  244  A    between atoms: _573  and  _574
REMARK  245  A    between atoms: _574  and  _575
REMARK  246  A    between atoms: _575  and  _576
REMARK  247  A    between atoms: _576  and  _577
REMARK  248  A    between atoms: _581  and  _583
REMARK  249  A    between atoms: _583  and  _584
REMARK  250  A    between atoms: _583  and  _586
REMARK  251  A    between atoms: _589  and  _591
REMARK  252  A    between atoms: _591  and  _592
REMARK  253  A    between atoms: _591  and  _594
REMARK  254  A    between atoms: _594  and  _595
REMARK  255  A    between atoms: _600  and  _602
REMARK  256  A    between atoms: _602  and  _603
REMARK  257  A    between atoms: _602  and  _605
REMARK  258  A    between atoms: _605  and  _606
REMARK  259  A    between atoms: _606  and  _607
REMARK  260  A    between atoms: _607  and  _608
REMARK  261  A    between atoms: _608  and  _609
REMARK  262  A    between atoms: _614  and  _615
REMARK  263  A    between atoms: _620  and  _622
REMARK  264  A    between atoms: _622  and  _623
REMARK  265  A    between atoms: _622  and  _625
REMARK  266  A    between atoms: _625  and  _626
REMARK  267  A    between atoms: _629  and  _631
REMARK  268  A    between atoms: _631  and  _632
REMARK  269  A    between atoms: _634  and  _636
REMARK  270  A    between atoms: _636  and  _637
REMARK  271  A    between atoms: _636  and  _639
REMARK  272  A    between atoms: _639  and  _640
REMARK                            x       y       z     vdW  Elec       q    Type
REMARK                         _______ _______ _______ _____ _____    ______ ____
ROOT
ATOM      1  O   HOH     1      -3.630  89.901  39.109  0.00  0.00    +0.000 OA
ENDROOT
TORSDOF 0
REMARK  Name = ../refined-set-2016/4zl4/4zl4_pocket.pdb
REMARK  272 active torsions:
REMARK  status: ('A' for Active; 'I' for Inactive)
REMARK    1  A    between atoms: _1  and  _3
REMARK    2  A    between atoms: _3  and  _4
REMARK    3  A    between atoms: _3  and  _6
REMARK    4  A    between atoms: _6  and  _7
REMARK    5  A    between atoms: _10  and  _12
REMARK    6  A    between atoms: _12  and  _13
REMARK    7  A    between atoms: _12  and  _15
REMARK    8  A    between atoms: _15  and  _16
REMARK    9  A    between atoms: _19  and  _21
REMARK   10  A    between atoms: _21  and  _22
REMARK   11  A    between atoms: _21  and  _24
REMARK   12  A    between atoms: _24  and  _25
REMARK   13  A    between atoms: _28  and  _30
REMARK   14  A    between atoms: _30  and  _31
REMARK   15  A    between atoms: _30  and  _33
REMARK   16  A    between atoms: _33  and  _34
REMARK   17  A    between atoms: _34  and  _35
REMARK   18  A    between atoms: _38  and  _40
REMARK   19  A    between atoms: _40  and  _41
REMARK   20  A    between atoms: _40  and  _43
REMARK   21  A    between atoms: _43  and  _44
REMARK   22  A    between atoms: _49  and  _50
REMARK   23  A    between atoms: _52  and  _54
REMARK   24  A    between atoms: _54  and  _55
REMARK   25  A    between atoms: _58  and  _60
REMARK   26  A    between atoms: _60  and  _61
REMARK   27  A    between atoms: _60  and  _63
REMARK   28  A    between atoms: _63  and  _64
REMARK   29  A    between atoms: _69  and  _70
REMARK   30  A    between atoms: _72  and  _74
REMARK   31  A    between atoms: _74  and  _75
REMARK   32  A    between atoms: _74  and  _77
REMARK   33  A    between atoms: _77  and  _78
REMARK   34  A    between atoms: _83  and  _84
REMARK   35  A    between atoms: _86  and  _88
REMARK   36  A    between atoms: _88  and  _89
REMARK   37  A    between atoms: _88  and  _91
REMARK   38  A    between atoms: _91  and  _92
REMARK   39  A    between atoms: _95  and  _97
REMARK   40  A    between atoms: _97  and  _98
REMARK   41  A    between atoms: _97  and  _100
REMARK   42  A    between atoms: _100  and  _101
REMARK   43  A    between atoms: _104  and  _106
REMARK   44  A    between atoms: _106  and  _107
REMARK   45  A    between atoms: _106  and  _109
REMARK   46  A    between atoms: _109  and  _110
REMARK   47  A    between atoms: _113  and  _115
REMARK   48  A    between atoms: _115  and  _116
REMARK   49  A    between atoms: _115  and  _118
REMARK   50  A    between atoms: _118  and  _119
REMARK   51  A    between atoms: _122  and  _124
REMARK   52  A    between atoms: _124  and  _125
REMARK   53  A    between atoms: _127  and  _129
REMARK   54  A    between atoms: _129  and  _130
REMARK   55  A    between atoms: _129  and  _132
REMARK   56  A    between atoms: _132  and  _133
REMARK   57  A    between atoms: _135  and  _137
REMARK   58  A    between atoms: _137  and  _138
REMARK   59  A    between atoms: _137  and  _140
REMARK   60  A    between atoms: _140  and  _141
REMARK   61  A    between atoms: _143  and  _145
REMARK   62  A    between atoms: _145  and  _146
REMARK   63  A    between atoms: _145  and  _148
REMARK   64  A    between atoms: _148  and  _149
REMARK   65  A    between atoms: _151  and  _153
REMARK   66  A    between atoms: _153  and  _154
REMARK   67  A    between atoms: _153  and  _156
REMARK   68  A    between atoms: _156  and  _157
REMARK   69  A    between atoms: _162  and  _164
REMARK   70  A    between atoms: _164  and  _165
REMARK   71  A    between atoms: _164  and  _167
REMARK   72  A    between atoms: _167  and  _168
REMARK   73  A    between atoms: _168  and  _169
REMARK   74  A    between atoms: _174  and  _176
REMARK   75  A    between atoms: _176  and  _177
REMARK   76  A    between atoms: _176  and  _179
REMARK   77  A    between atoms: _179  and  _180
REMARK   78  A    between atoms: _182  and  _184
REMARK   79  A    between atoms: _184  and  _185
REMARK   80  A    between atoms: _184  and  _187
REMARK   81  A    between atoms: _187  and  _188
REMARK   82  A    between atoms: _193  and  _194
REMARK   83  A    between atoms: _196  and  _198
REMARK   84  A    between atoms: _198  and  _199
REMARK   85  A    between atoms: _198  and  _201
REMARK   86  A    between atoms: _203  and  _205
REMARK   87  A    between atoms: _205  and  _206
REMARK   88  A    between atoms: _205  and  _208
REMARK   89  A    between atoms: _208  and  _209
REMARK   90  A    between atoms: _209  and  _210
REMARK   91  A    between atoms: _213  and  _215
REMARK   92  A    between atoms: _215  and  _216
REMARK   93  A    between atoms: _218  and  _220
REMARK   94  A    between atoms: _220  and  _221
REMARK   95  A    between atoms: _220  and  _223
REMARK   96  A    between atoms: _223  and  _224
REMARK   97  A    between atoms: _226  and  _228
REMARK   98  A    between atoms: _228  and  _229
REMARK   99  A    between atoms: _228  and  _231
REMARK  100  A    between atoms: _231  and  _232
REMARK  101  A    between atoms: _235  and  _237
REMARK  102  A    between atoms: _237  and  _238
REMARK  103  A    between atoms: _237  and  _240
REMARK  104  A    between atoms: _240  and  _241
REMARK  105  A    between atoms: _241  and  _242
REMARK  106  A    between atoms: _245  and  _247
REMARK  107  A    between atoms: _247  and  _248
REMARK  108  A    between atoms: _247  and  _250
REMARK  109  A    between atoms: _250  and  _251
REMARK  110  A    between atoms: _253  and  _255
REMARK  111  A    between atoms: _255  and  _256
REMARK  112  A    between atoms: _255  and  _258
REMARK  113  A    between atoms: _258  and  _259
REMARK  114  A    between atoms: _262  and  _264
REMARK  115  A    between atoms: _264  and  _265
REMARK  116  A    between atoms: _264  and  _267
REMARK  117  A    between atoms: _267  and  _268
REMARK  118  A    between atoms: _274  and  _276
REMARK  119  A    between atoms: _276  and  _277
REMARK  120  A    between atoms: _276  and  _279
REMARK  121  A    between atoms: _279  and  _280
REMARK  122  A    between atoms: _283  and  _285
REMARK  123  A    between atoms: _285  and  _286
REMARK  124  A    between atoms: _285  and  _288
REMARK  125  A    between atoms: _288  and  _289
REMARK  126  A    between atoms: _294  and  _295
REMARK  127  A    between atoms: _297  and  _299
REMARK  128  A    between atoms: _299  and  _300
REMARK  129  A    between atoms: _299  and  _302
REMARK  130  A    between atoms: _302  and  _303
REMARK  131  A    between atoms: _303  and  _304
REMARK  132  A    between atoms: _309  and  _311
REMARK  133  A    between atoms: _311  and  _312
REMARK  134  A    between atoms: _311  and  _314
REMARK  135  A    between atoms: _314  and  _315
REMARK  136  A    between atoms: _315  and  _316
REMARK  137  A    between atoms: _321  and  _323
REMARK  138  A    between atoms: _323  and  _324
REMARK  139  A    between atoms: _327  and  _329
REMARK  140  A    between atoms: _329  and  _330
REMARK  141  A    between atoms: _332  and  _334
REMARK  142  A    between atoms: _334  and  _335
REMARK  143  A    between atoms: _334  and  _337
REMARK  144  A    between atoms: _340  and  _342
REMARK  145  A    between atoms: _342  and  _343
REMARK  146  A    between atoms: _342  and  _345
REMARK  147  A    between atoms: _345  and  _346
REMARK  148  A    between atoms: _349  and  _351
REMARK  149  A    between atoms: _351  and  _352
REMARK  150  A    between atoms: _354  and  _356
REMARK  151  A    between atoms: _356  and  _357
REMARK  152  A    between atoms: _356  and  _359
REMARK  153  A    between atoms: _359  and  _360
REMARK  154  A    between atoms: _360  and  _361
REMARK  155  A    between atoms: _363  and  _365
REMARK  156  A    between atoms: _365  and  _366
REMARK  157  A    between atoms: _365  and  _368
REMARK  158  A    between atoms: _368  and  _369
REMARK  159  A    between atoms: _371  and  _373
REMARK  160  A    between atoms: _373  and  _374
REMARK  161  A    between atoms: _373  and  _376
REMARK  162  A    between atoms: _376  and  _377
REMARK  163  A    between atoms: _377  and  _378
REMARK  164  A    between atoms: _378  and  _379
REMARK  165  A    between atoms: _379  and  _380
REMARK  166  A    between atoms: _384  and  _386
REMARK  167  A    between atoms: _386  and  _387
REMARK  168  A    between atoms: _386  and  _389
REMARK  169  A    between atoms: _389  and  _390
REMARK  170  A    between atoms: _390  and  _391
REMARK  171  A    between atoms: _391  and  _392
REMARK  172  A    between atoms: _401  and  _403
REMARK  173  A    between atoms: _403  and  _404
REMARK  174  A    between atoms: _403  and  _406
REMARK  175  A    between atoms: _406  and  _407
REMARK  176  A    between atoms: _412  and  _413
REMARK  177  A    between atoms: _415  and  _417
REMARK  178  A    between atoms: _417  and  _418
REMARK  179  A    between atoms: _417  and  _420
REMARK  180  A    between atoms: _420  and  _421
REMARK  181  A    between atoms: _426  and  _427
REMARK  182  A    between atoms: _429  and  _431
REMARK  183  A    between atoms: _431  and  _432
REMARK  184  A    between atoms: _431  and  _434
REMARK  185  A    between atoms: _434  and  _435
REMARK  186  A    between atoms: _440  and  _441
REMARK  187  A    between atoms: _443  and  _445
REMARK  188  A    between atoms: _445  and  _446
REMARK  189  A    between atoms: _445  and  _448
REMARK  190  A    between atoms: _448  and  _449
REMARK  191  A    between atoms: _452  and  _454
REMARK  192  A    between atoms: _454  and  _455
REMARK  193  A    between atoms: _454  and  _457
REMARK  194  A    between atoms: _460  and  _462
REMARK  195  A    between atoms: _462  and  _463
REMARK  196  A    between atoms: _462  and  _465
REMARK  197  A    between atoms: _465  and  _466
REMARK  198  A    between atoms: _469  and  _471
REMARK  199  A    between atoms: _471  and  _472
REMARK  200  A    between atoms: _471  and  _474
REMARK  201  A    between atoms: _474  and  _475
REMARK  202  A    between atoms: _477  and  _479
REMARK  203  A    between atoms: _479  and  _480
REMARK  204  A    between atoms: _482  and  _484
REMARK  205  A    between atoms: _484  and  _485
REMARK  206  A    between atoms: _484  and  _487
REMARK  207  A    between atoms: _487  and  _488
REMARK  208  A    between atoms: _490  and  _492
REMARK  209  A    between atoms: _492  and  _493
REMARK  210  A    between atoms: _492  and  _495
REMARK  211  A    between atoms: _495  and  _496
REMARK  212  A    between atoms: _499  and  _501
REMARK  213  A    between atoms: _501  and  _502
REMARK  214  A    between atoms: _501  and  _504
REMARK  215  A    between atoms: _504  and  _505
REMARK  216  A    between atoms: _511  and  _513
REMARK  217  A    between atoms: _513  and  _514
REMARK  218  A    between atoms: _513  and  _516
REMARK  219  A    between atoms: _516  and  _517
REMARK  220  A    between atoms: _520  and  _522
REMARK  221  A    between atoms: _522  and  _523
REMARK  222  A    between atoms: _522  and  _525
REMARK  223  A    between atoms: _525  and  _526
REMARK  224  A    between atoms: _531  and  _533
REMARK  225  A    between atoms: _533  and  _534
REMARK  226  A    between atoms: _533  and  _536
REMARK  227  A    between atoms: _536  and  _537
REMARK  228  A    between atoms: _542  and  _543
REMARK  229  A    between atoms: _545  and  _547
REMARK  230  A    between atoms: _547  and  _548
REMARK  231  A    between atoms: _547  and  _550
REMARK  232  A    between atoms: _550  and  _551
REMARK  233  A    between atoms: _551  and  _552
REMARK  234  A    between atoms: _552  and  _553
REMARK  235  A    between atoms: _553  and  _554
REMARK  236  A    between atoms: _558  and  _560
REMARK  237  A    between atoms: _560  and  _561
REMARK  238  A    between atoms: _560  and  _563
REMARK  239  A    between atoms: _563  and  _564
REMARK  240  A    between atoms: _564  and  _565
REMARK  241  A    between atoms: _568  and  _570
REMARK  242  A    between atoms: _570  and  _571
REMARK  243  A    between atoms: _570  and  _573
REMARK  244  A    between atoms: _573  and  _574
REMARK  245  A    between atoms: _574  and  _575
REMARK  246  A    between atoms: _575  and  _576
REMARK  247  A    between atoms: _576  and  _577
REMARK  248  A    between atoms: _581  and  _583
REMARK  249  A    between atoms: _583  and  _584
REMARK  250  A    between atoms: _583  and  _586
REMARK  251  A    between atoms: _589  and  _591
REMARK  252  A    between atoms: _591  and  _592
REMARK  253  A    between atoms: _591  and  _594
REMARK  254  A    between atoms: _594  and  _595
REMARK  255  A    between atoms: _600  and  _602
REMARK  256  A    between atoms: _602  and  _603
REMARK  257  A    between atoms: _602  and  _605
REMARK  258  A    between atoms: _605  and  _606
REMARK  259  A    between atoms: _606  and  _607
REMARK  260  A    between atoms: _607  and  _608
REMARK  261  A    between atoms: _608  and  _609
REMARK  262  A    between atoms: _614  and  _615
REMARK  263  A    between atoms: _620  and  _622
REMARK  264  A    between atoms: _622  and  _623
REMARK  265  A    between atoms: _622  and  _625
REMARK  266  A    between atoms: _625  and  _626
REMARK  267  A    between atoms: _629  and  _631
REMARK  268  A    between atoms: _631  and  _632
REMARK  269  A    between atoms: _634  and  _636
REMARK  270  A    between atoms: _636  and  _637
REMARK  271  A    between atoms: _636  and  _639
REMARK  272  A    between atoms: _639  and  _640
REMARK                            x       y       z     vdW  Elec       q    Type
REMARK                         _______ _______ _______ _____ _____    ______ ____
ROOT
ATOM      1  O   HOH     1       3.082 108.534  32.807  0.00  0.00    +0.000 OA
ENDROOT
TORSDOF 0
REMARK  Name = ../refined-set-2016/4zl4/4zl4_pocket.pdb
REMARK  272 active torsions:
REMARK  status: ('A' for Active; 'I' for Inactive)
REMARK    1  A    between atoms: _1  and  _3
REMARK    2  A    between atoms: _3  and  _4
REMARK    3  A    between atoms: _3  and  _6
REMARK    4  A    between atoms: _6  and  _7
REMARK    5  A    between atoms: _10  and  _12
REMARK    6  A    between atoms: _12  and  _13
REMARK    7  A    between atoms: _12  and  _15
REMARK    8  A    between atoms: _15  and  _16
REMARK    9  A    between atoms: _19  and  _21
REMARK   10  A    between atoms: _21  and  _22
REMARK   11  A    between atoms: _21  and  _24
REMARK   12  A    between atoms: _24  and  _25
REMARK   13  A    between atoms: _28  and  _30
REMARK   14  A    between atoms: _30  and  _31
REMARK   15  A    between atoms: _30  and  _33
REMARK   16  A    between atoms: _33  and  _34
REMARK   17  A    between atoms: _34  and  _35
REMARK   18  A    between atoms: _38  and  _40
REMARK   19  A    between atoms: _40  and  _41
REMARK   20  A    between atoms: _40  and  _43
REMARK   21  A    between atoms: _43  and  _44
REMARK   22  A    between atoms: _49  and  _50
REMARK   23  A    between atoms: _52  and  _54
REMARK   24  A    between atoms: _54  and  _55
REMARK   25  A    between atoms: _58  and  _60
REMARK   26  A    between atoms: _60  and  _61
REMARK   27  A    between atoms: _60  and  _63
REMARK   28  A    between atoms: _63  and  _64
REMARK   29  A    between atoms: _69  and  _70
REMARK   30  A    between atoms: _72  and  _74
REMARK   31  A    between atoms: _74  and  _75
REMARK   32  A    between atoms: _74  and  _77
REMARK   33  A    between atoms: _77  and  _78
REMARK   34  A    between atoms: _83  and  _84
REMARK   35  A    between atoms: _86  and  _88
REMARK   36  A    between atoms: _88  and  _89
REMARK   37  A    between atoms: _88  and  _91
REMARK   38  A    between atoms: _91  and  _92
REMARK   39  A    between atoms: _95  and  _97
REMARK   40  A    between atoms: _97  and  _98
REMARK   41  A    between atoms: _97  and  _100
REMARK   42  A    between atoms: _100  and  _101
REMARK   43  A    between atoms: _104  and  _106
REMARK   44  A    between atoms: _106  and  _107
REMARK   45  A    between atoms: _106  and  _109
REMARK   46  A    between atoms: _109  and  _110
REMARK   47  A    between atoms: _113  and  _115
REMARK   48  A    between atoms: _115  and  _116
REMARK   49  A    between atoms: _115  and  _118
REMARK   50  A    between atoms: _118  and  _119
REMARK   51  A    between atoms: _122  and  _124
REMARK   52  A    between atoms: _124  and  _125
REMARK   53  A    between atoms: _127  and  _129
REMARK   54  A    between atoms: _129  and  _130
REMARK   55  A    between atoms: _129  and  _132
REMARK   56  A    between atoms: _132  and  _133
REMARK   57  A    between atoms: _135  and  _137
REMARK   58  A    between atoms: _137  and  _138
REMARK   59  A    between atoms: _137  and  _140
REMARK   60  A    between atoms: _140  and  _141
REMARK   61  A    between atoms: _143  and  _145
REMARK   62  A    between atoms: _145  and  _146
REMARK   63  A    between atoms: _145  and  _148
REMARK   64  A    between atoms: _148  and  _149
REMARK   65  A    between atoms: _151  and  _153
REMARK   66  A    between atoms: _153  and  _154
REMARK   67  A    between atoms: _153  and  _156
REMARK   68  A    between atoms: _156  and  _157
REMARK   69  A    between atoms: _162  and  _164
REMARK   70  A    between atoms: _164  and  _165
REMARK   71  A    between atoms: _164  and  _167
REMARK   72  A    between atoms: _167  and  _168
REMARK   73  A    between atoms: _168  and  _169
REMARK   74  A    between atoms: _174  and  _176
REMARK   75  A    between atoms: _176  and  _177
REMARK   76  A    between atoms: _176  and  _179
REMARK   77  A    between atoms: _179  and  _180
REMARK   78  A    between atoms: _182  and  _184
REMARK   79  A    between atoms: _184  and  _185
REMARK   80  A    between atoms: _184  and  _187
REMARK   81  A    between atoms: _187  and  _188
REMARK   82  A    between atoms: _193  and  _194
REMARK   83  A    between atoms: _196  and  _198
REMARK   84  A    between atoms: _198  and  _199
REMARK   85  A    between atoms: _198  and  _201
REMARK   86  A    between atoms: _203  and  _205
REMARK   87  A    between atoms: _205  and  _206
REMARK   88  A    between atoms: _205  and  _208
REMARK   89  A    between atoms: _208  and  _209
REMARK   90  A    between atoms: _209  and  _210
REMARK   91  A    between atoms: _213  and  _215
REMARK   92  A    between atoms: _215  and  _216
REMARK   93  A    between atoms: _218  and  _220
REMARK   94  A    between atoms: _220  and  _221
REMARK   95  A    between atoms: _220  and  _223
REMARK   96  A    between atoms: _223  and  _224
REMARK   97  A    between atoms: _226  and  _228
REMARK   98  A    between atoms: _228  and  _229
REMARK   99  A    between atoms: _228  and  _231
REMARK  100  A    between atoms: _231  and  _232
REMARK  101  A    between atoms: _235  and  _237
REMARK  102  A    between atoms: _237  and  _238
REMARK  103  A    between atoms: _237  and  _240
REMARK  104  A    between atoms: _240  and  _241
REMARK  105  A    between atoms: _241  and  _242
REMARK  106  A    between atoms: _245  and  _247
REMARK  107  A    between atoms: _247  and  _248
REMARK  108  A    between atoms: _247  and  _250
REMARK  109  A    between atoms: _250  and  _251
REMARK  110  A    between atoms: _253  and  _255
REMARK  111  A    between atoms: _255  and  _256
REMARK  112  A    between atoms: _255  and  _258
REMARK  113  A    between atoms: _258  and  _259
REMARK  114  A    between atoms: _262  and  _264
REMARK  115  A    between atoms: _264  and  _265
REMARK  116  A    between atoms: _264  and  _267
REMARK  117  A    between atoms: _267  and  _268
REMARK  118  A    between atoms: _274  and  _276
REMARK  119  A    between atoms: _276  and  _277
REMARK  120  A    between atoms: _276  and  _279
REMARK  121  A    between atoms: _279  and  _280
REMARK  122  A    between atoms: _283  and  _285
REMARK  123  A    between atoms: _285  and  _286
REMARK  124  A    between atoms: _285  and  _288
REMARK  125  A    between atoms: _288  and  _289
REMARK  126  A    between atoms: _294  and  _295
REMARK  127  A    between atoms: _297  and  _299
REMARK  128  A    between atoms: _299  and  _300
REMARK  129  A    between atoms: _299  and  _302
REMARK  130  A    between atoms: _302  and  _303
REMARK  131  A    between atoms: _303  and  _304
REMARK  132  A    between atoms: _309  and  _311
REMARK  133  A    between atoms: _311  and  _312
REMARK  134  A    between atoms: _311  and  _314
REMARK  135  A    between atoms: _314  and  _315
REMARK  136  A    between atoms: _315  and  _316
REMARK  137  A    between atoms: _321  and  _323
REMARK  138  A    between atoms: _323  and  _324
REMARK  139  A    between atoms: _327  and  _329
REMARK  140  A    between atoms: _329  and  _330
REMARK  141  A    between atoms: _332  and  _334
REMARK  142  A    between atoms: _334  and  _335
REMARK  143  A    between atoms: _334  and  _337
REMARK  144  A    between atoms: _340  and  _342
REMARK  145  A    between atoms: _342  and  _343
REMARK  146  A    between atoms: _342  and  _345
REMARK  147  A    between atoms: _345  and  _346
REMARK  148  A    between atoms: _349  and  _351
REMARK  149  A    between atoms: _351  and  _352
REMARK  150  A    between atoms: _354  and  _356
REMARK  151  A    between atoms: _356  and  _357
REMARK  152  A    between atoms: _356  and  _359
REMARK  153  A    between atoms: _359  and  _360
REMARK  154  A    between atoms: _360  and  _361
REMARK  155  A    between atoms: _363  and  _365
REMARK  156  A    between atoms: _365  and  _366
REMARK  157  A    between atoms: _365  and  _368
REMARK  158  A    between atoms: _368  and  _369
REMARK  159  A    between atoms: _371  and  _373
REMARK  160  A    between atoms: _373  and  _374
REMARK  161  A    between atoms: _373  and  _376
REMARK  162  A    between atoms: _376  and  _377
REMARK  163  A    between atoms: _377  and  _378
REMARK  164  A    between atoms: _378  and  _379
REMARK  165  A    between atoms: _379  and  _380
REMARK  166  A    between atoms: _384  and  _386
REMARK  167  A    between atoms: _386  and  _387
REMARK  168  A    between atoms: _386  and  _389
REMARK  169  A    between atoms: _389  and  _390
REMARK  170  A    between atoms: _390  and  _391
REMARK  171  A    between atoms: _391  and  _392
REMARK  172  A    between atoms: _401  and  _403
REMARK  173  A    between atoms: _403  and  _404
REMARK  174  A    between atoms: _403  and  _406
REMARK  175  A    between atoms: _406  and  _407
REMARK  176  A    between atoms: _412  and  _413
REMARK  177  A    between atoms: _415  and  _417
REMARK  178  A    between atoms: _417  and  _418
REMARK  179  A    between atoms: _417  and  _420
REMARK  180  A    between atoms: _420  and  _421
REMARK  181  A    between atoms: _426  and  _427
REMARK  182  A    between atoms: _429  and  _431
REMARK  183  A    between atoms: _431  and  _432
REMARK  184  A    between atoms: _431  and  _434
REMARK  185  A    between atoms: _434  and  _435
REMARK  186  A    between atoms: _440  and  _441
REMARK  187  A    between atoms: _443  and  _445
REMARK  188  A    between atoms: _445  and  _446
REMARK  189  A    between atoms: _445  and  _448
REMARK  190  A    between atoms: _448  and  _449
REMARK  191  A    between atoms: _452  and  _454
REMARK  192  A    between atoms: _454  and  _455
REMARK  193  A    between atoms: _454  and  _457
REMARK  194  A    between atoms: _460  and  _462
REMARK  195  A    between atoms: _462  and  _463
REMARK  196  A    between atoms: _462  and  _465
REMARK  197  A    between atoms: _465  and  _466
REMARK  198  A    between atoms: _469  and  _471
REMARK  199  A    between atoms: _471  and  _472
REMARK  200  A    between atoms: _471  and  _474
REMARK  201  A    between atoms: _474  and  _475
REMARK  202  A    between atoms: _477  and  _479
REMARK  203  A    between atoms: _479  and  _480
REMARK  204  A    between atoms: _482  and  _484
REMARK  205  A    between atoms: _484  and  _485
REMARK  206  A    between atoms: _484  and  _487
REMARK  207  A    between atoms: _487  and  _488
REMARK  208  A    between atoms: _490  and  _492
REMARK  209  A    between atoms: _492  and  _493
REMARK  210  A    between atoms: _492  and  _495
REMARK  211  A    between atoms: _495  and  _496
REMARK  212  A    between atoms: _499  and  _501
REMARK  213  A    between atoms: _501  and  _502
REMARK  214  A    between atoms: _501  and  _504
REMARK  215  A    between atoms: _504  and  _505
REMARK  216  A    between atoms: _511  and  _513
REMARK  217  A    between atoms: _513  and  _514
REMARK  218  A    between atoms: _513  and  _516
REMARK  219  A    between atoms: _516  and  _517
REMARK  220  A    between atoms: _520  and  _522
REMARK  221  A    between atoms: _522  and  _523
REMARK  222  A    between atoms: _522  and  _525
REMARK  223  A    between atoms: _525  and  _526
REMARK  224  A    between atoms: _531  and  _533
REMARK  225  A    between atoms: _533  and  _534
REMARK  226  A    between atoms: _533  and  _536
REMARK  227  A    between atoms: _536  and  _537
REMARK  228  A    between atoms: _542  and  _543
REMARK  229  A    between atoms: _545  and  _547
REMARK  230  A    between atoms: _547  and  _548
REMARK  231  A    between atoms: _547  and  _550
REMARK  232  A    between atoms: _550  and  _551
REMARK  233  A    between atoms: _551  and  _552
REMARK  234  A    between atoms: _552  and  _553
REMARK  235  A    between atoms: _553  and  _554
REMARK  236  A    between atoms: _558  and  _560
REMARK  237  A    between atoms: _560  and  _561
REMARK  238  A    between atoms: _560  and  _563
REMARK  239  A    between atoms: _563  and  _564
REMARK  240  A    between atoms: _564  and  _565
REMARK  241  A    between atoms: _568  and  _570
REMARK  242  A    between atoms: _570  and  _571
REMARK  243  A    between atoms: _570  and  _573
REMARK  244  A    between atoms: _573  and  _574
REMARK  245  A    between atoms: _574  and  _575
REMARK  246  A    between atoms: _575  and  _576
REMARK  247  A    between atoms: _576  and  _577
REMARK  248  A    between atoms: _581  and  _583
REMARK  249  A    between atoms: _583  and  _584
REMARK  250  A    between atoms: _583  and  _586
REMARK  251  A    between atoms: _589  and  _591
REMARK  252  A    between atoms: _591  and  _592
REMARK  253  A    between atoms: _591  and  _594
REMARK  254  A    between atoms: _594  and  _595
REMARK  255  A    between atoms: _600  and  _602
REMARK  256  A    between atoms: _602  and  _603
REMARK  257  A    between atoms: _602  and  _605
REMARK  258  A    between atoms: _605  and  _606
REMARK  259  A    between atoms: _606  and  _607
REMARK  260  A    between atoms: _607  and  _608
REMARK  261  A    between atoms: _608  and  _609
REMARK  262  A    between atoms: _614  and  _615
REMARK  263  A    between atoms: _620  and  _622
REMARK  264  A    between atoms: _622  and  _623
REMARK  265  A    between atoms: _622  and  _625
REMARK  266  A    between atoms: _625  and  _626
REMARK  267  A    between atoms: _629  and  _631
REMARK  268  A    between atoms: _631  and  _632
REMARK  269  A    between atoms: _634  and  _636
REMARK  270  A    between atoms: _636  and  _637
REMARK  271  A    between atoms: _636  and  _639
REMARK  272  A    between atoms: _639  and  _640
REMARK                            x       y       z     vdW  Elec       q    Type
REMARK                         _______ _______ _______ _____ _____    ______ ____
ROOT
ATOM      1  O   HOH     1      -2.290 103.670  33.952  0.00  0.00    +0.000 OA
ENDROOT
TORSDOF 0
REMARK  Name = ../refined-set-2016/4zl4/4zl4_pocket.pdb
REMARK  272 active torsions:
REMARK  status: ('A' for Active; 'I' for Inactive)
REMARK    1  A    between atoms: _1  and  _3
REMARK    2  A    between atoms: _3  and  _4
REMARK    3  A    between atoms: _3  and  _6
REMARK    4  A    between atoms: _6  and  _7
REMARK    5  A    between atoms: _10  and  _12
REMARK    6  A    between atoms: _12  and  _13
REMARK    7  A    between atoms: _12  and  _15
REMARK    8  A    between atoms: _15  and  _16
REMARK    9  A    between atoms: _19  and  _21
REMARK   10  A    between atoms: _21  and  _22
REMARK   11  A    between atoms: _21  and  _24
REMARK   12  A    between atoms: _24  and  _25
REMARK   13  A    between atoms: _28  and  _30
REMARK   14  A    between atoms: _30  and  _31
REMARK   15  A    between atoms: _30  and  _33
REMARK   16  A    between atoms: _33  and  _34
REMARK   17  A    between atoms: _34  and  _35
REMARK   18  A    between atoms: _38  and  _40
REMARK   19  A    between atoms: _40  and  _41
REMARK   20  A    between atoms: _40  and  _43
REMARK   21  A    between atoms: _43  and  _44
REMARK   22  A    between atoms: _49  and  _50
REMARK   23  A    between atoms: _52  and  _54
REMARK   24  A    between atoms: _54  and  _55
REMARK   25  A    between atoms: _58  and  _60
REMARK   26  A    between atoms: _60  and  _61
REMARK   27  A    between atoms: _60  and  _63
REMARK   28  A    between atoms: _63  and  _64
REMARK   29  A    between atoms: _69  and  _70
REMARK   30  A    between atoms: _72  and  _74
REMARK   31  A    between atoms: _74  and  _75
REMARK   32  A    between atoms: _74  and  _77
REMARK   33  A    between atoms: _77  and  _78
REMARK   34  A    between atoms: _83  and  _84
REMARK   35  A    between atoms: _86  and  _88
REMARK   36  A    between atoms: _88  and  _89
REMARK   37  A    between atoms: _88  and  _91
REMARK   38  A    between atoms: _91  and  _92
REMARK   39  A    between atoms: _95  and  _97
REMARK   40  A    between atoms: _97  and  _98
REMARK   41  A    between atoms: _97  and  _100
REMARK   42  A    between atoms: _100  and  _101
REMARK   43  A    between atoms: _104  and  _106
REMARK   44  A    between atoms: _106  and  _107
REMARK   45  A    between atoms: _106  and  _109
REMARK   46  A    between atoms: _109  and  _110
REMARK   47  A    between atoms: _113  and  _115
REMARK   48  A    between atoms: _115  and  _116
REMARK   49  A    between atoms: _115  and  _118
REMARK   50  A    between atoms: _118  and  _119
REMARK   51  A    between atoms: _122  and  _124
REMARK   52  A    between atoms: _124  and  _125
REMARK   53  A    between atoms: _127  and  _129
REMARK   54  A    between atoms: _129  and  _130
REMARK   55  A    between atoms: _129  and  _132
REMARK   56  A    between atoms: _132  and  _133
REMARK   57  A    between atoms: _135  and  _137
REMARK   58  A    between atoms: _137  and  _138
REMARK   59  A    between atoms: _137  and  _140
REMARK   60  A    between atoms: _140  and  _141
REMARK   61  A    between atoms: _143  and  _145
REMARK   62  A    between atoms: _145  and  _146
REMARK   63  A    between atoms: _145  and  _148
REMARK   64  A    between atoms: _148  and  _149
REMARK   65  A    between atoms: _151  and  _153
REMARK   66  A    between atoms: _153  and  _154
REMARK   67  A    between atoms: _153  and  _156
REMARK   68  A    between atoms: _156  and  _157
REMARK   69  A    between atoms: _162  and  _164
REMARK   70  A    between atoms: _164  and  _165
REMARK   71  A    between atoms: _164  and  _167
REMARK   72  A    between atoms: _167  and  _168
REMARK   73  A    between atoms: _168  and  _169
REMARK   74  A    between atoms: _174  and  _176
REMARK   75  A    between atoms: _176  and  _177
REMARK   76  A    between atoms: _176  and  _179
REMARK   77  A    between atoms: _179  and  _180
REMARK   78  A    between atoms: _182  and  _184
REMARK   79  A    between atoms: _184  and  _185
REMARK   80  A    between atoms: _184  and  _187
REMARK   81  A    between atoms: _187  and  _188
REMARK   82  A    between atoms: _193  and  _194
REMARK   83  A    between atoms: _196  and  _198
REMARK   84  A    between atoms: _198  and  _199
REMARK   85  A    between atoms: _198  and  _201
REMARK   86  A    between atoms: _203  and  _205
REMARK   87  A    between atoms: _205  and  _206
REMARK   88  A    between atoms: _205  and  _208
REMARK   89  A    between atoms: _208  and  _209
REMARK   90  A    between atoms: _209  and  _210
REMARK   91  A    between atoms: _213  and  _215
REMARK   92  A    between atoms: _215  and  _216
REMARK   93  A    between atoms: _218  and  _220
REMARK   94  A    between atoms: _220  and  _221
REMARK   95  A    between atoms: _220  and  _223
REMARK   96  A    between atoms: _223  and  _224
REMARK   97  A    between atoms: _226  and  _228
REMARK   98  A    between atoms: _228  and  _229
REMARK   99  A    between atoms: _228  and  _231
REMARK  100  A    between atoms: _231  and  _232
REMARK  101  A    between atoms: _235  and  _237
REMARK  102  A    between atoms: _237  and  _238
REMARK  103  A    between atoms: _237  and  _240
REMARK  104  A    between atoms: _240  and  _241
REMARK  105  A    between atoms: _241  and  _242
REMARK  106  A    between atoms: _245  and  _247
REMARK  107  A    between atoms: _247  and  _248
REMARK  108  A    between atoms: _247  and  _250
REMARK  109  A    between atoms: _250  and  _251
REMARK  110  A    between atoms: _253  and  _255
REMARK  111  A    between atoms: _255  and  _256
REMARK  112  A    between atoms: _255  and  _258
REMARK  113  A    between atoms: _258  and  _259
REMARK  114  A    between atoms: _262  and  _264
REMARK  115  A    between atoms: _264  and  _265
REMARK  116  A    between atoms: _264  and  _267
REMARK  117  A    between atoms: _267  and  _268
REMARK  118  A    between atoms: _274  and  _276
REMARK  119  A    between atoms: _276  and  _277
REMARK  120  A    between atoms: _276  and  _279
REMARK  121  A    between atoms: _279  and  _280
REMARK  122  A    between atoms: _283  and  _285
REMARK  123  A    between atoms: _285  and  _286
REMARK  124  A    between atoms: _285  and  _288
REMARK  125  A    between atoms: _288  and  _289
REMARK  126  A    between atoms: _294  and  _295
REMARK  127  A    between atoms: _297  and  _299
REMARK  128  A    between atoms: _299  and  _300
REMARK  129  A    between atoms: _299  and  _302
REMARK  130  A    between atoms: _302  and  _303
REMARK  131  A    between atoms: _303  and  _304
REMARK  132  A    between atoms: _309  and  _311
REMARK  133  A    between atoms: _311  and  _312
REMARK  134  A    between atoms: _311  and  _314
REMARK  135  A    between atoms: _314  and  _315
REMARK  136  A    between atoms: _315  and  _316
REMARK  137  A    between atoms: _321  and  _323
REMARK  138  A    between atoms: _323  and  _324
REMARK  139  A    between atoms: _327  and  _329
REMARK  140  A    between atoms: _329  and  _330
REMARK  141  A    between atoms: _332  and  _334
REMARK  142  A    between atoms: _334  and  _335
REMARK  143  A    between atoms: _334  and  _337
REMARK  144  A    between atoms: _340  and  _342
REMARK  145  A    between atoms: _342  and  _343
REMARK  146  A    between atoms: _342  and  _345
REMARK  147  A    between atoms: _345  and  _346
REMARK  148  A    between atoms: _349  and  _351
REMARK  149  A    between atoms: _351  and  _352
REMARK  150  A    between atoms: _354  and  _356
REMARK  151  A    between atoms: _356  and  _357
REMARK  152  A    between atoms: _356  and  _359
REMARK  153  A    between atoms: _359  and  _360
REMARK  154  A    between atoms: _360  and  _361
REMARK  155  A    between atoms: _363  and  _365
REMARK  156  A    between atoms: _365  and  _366
REMARK  157  A    between atoms: _365  and  _368
REMARK  158  A    between atoms: _368  and  _369
REMARK  159  A    between atoms: _371  and  _373
REMARK  160  A    between atoms: _373  and  _374
REMARK  161  A    between atoms: _373  and  _376
REMARK  162  A    between atoms: _376  and  _377
REMARK  163  A    between atoms: _377  and  _378
REMARK  164  A    between atoms: _378  and  _379
REMARK  165  A    between atoms: _379  and  _380
REMARK  166  A    between atoms: _384  and  _386
REMARK  167  A    between atoms: _386  and  _387
REMARK  168  A    between atoms: _386  and  _389
REMARK  169  A    between atoms: _389  and  _390
REMARK  170  A    between atoms: _390  and  _391
REMARK  171  A    between atoms: _391  and  _392
REMARK  172  A    between atoms: _401  and  _403
REMARK  173  A    between atoms: _403  and  _404
REMARK  174  A    between atoms: _403  and  _406
REMARK  175  A    between atoms: _406  and  _407
REMARK  176  A    between atoms: _412  and  _413
REMARK  177  A    between atoms: _415  and  _417
REMARK  178  A    between atoms: _417  and  _418
REMARK  179  A    between atoms: _417  and  _420
REMARK  180  A    between atoms: _420  and  _421
REMARK  181  A    between atoms: _426  and  _427
REMARK  182  A    between atoms: _429  and  _431
REMARK  183  A    between atoms: _431  and  _432
REMARK  184  A    between atoms: _431  and  _434
REMARK  185  A    between atoms: _434  and  _435
REMARK  186  A    between atoms: _440  and  _441
REMARK  187  A    between atoms: _443  and  _445
REMARK  188  A    between atoms: _445  and  _446
REMARK  189  A    between atoms: _445  and  _448
REMARK  190  A    between atoms: _448  and  _449
REMARK  191  A    between atoms: _452  and  _454
REMARK  192  A    between atoms: _454  and  _455
REMARK  193  A    between atoms: _454  and  _457
REMARK  194  A    between atoms: _460  and  _462
REMARK  195  A    between atoms: _462  and  _463
REMARK  196  A    between atoms: _462  and  _465
REMARK  197  A    between atoms: _465  and  _466
REMARK  198  A    between atoms: _469  and  _471
REMARK  199  A    between atoms: _471  and  _472
REMARK  200  A    between atoms: _471  and  _474
REMARK  201  A    between atoms: _474  and  _475
REMARK  202  A    between atoms: _477  and  _479
REMARK  203  A    between atoms: _479  and  _480
REMARK  204  A    between atoms: _482  and  _484
REMARK  205  A    between atoms: _484  and  _485
REMARK  206  A    between atoms: _484  and  _487
REMARK  207  A    between atoms: _487  and  _488
REMARK  208  A    between atoms: _490  and  _492
REMARK  209  A    between atoms: _492  and  _493
REMARK  210  A    between atoms: _492  and  _495
REMARK  211  A    between atoms: _495  and  _496
REMARK  212  A    between atoms: _499  and  _501
REMARK  213  A    between atoms: _501  and  _502
REMARK  214  A    between atoms: _501  and  _504
REMARK  215  A    between atoms: _504  and  _505
REMARK  216  A    between atoms: _511  and  _513
REMARK  217  A    between atoms: _513  and  _514
REMARK  218  A    between atoms: _513  and  _516
REMARK  219  A    between atoms: _516  and  _517
REMARK  220  A    between atoms: _520  and  _522
REMARK  221  A    between atoms: _522  and  _523
REMARK  222  A    between atoms: _522  and  _525
REMARK  223  A    between atoms: _525  and  _526
REMARK  224  A    between atoms: _531  and  _533
REMARK  225  A    between atoms: _533  and  _534
REMARK  226  A    between atoms: _533  and  _536
REMARK  227  A    between atoms: _536  and  _537
REMARK  228  A    between atoms: _542  and  _543
REMARK  229  A    between atoms: _545  and  _547
REMARK  230  A    between atoms: _547  and  _548
REMARK  231  A    between atoms: _547  and  _550
REMARK  232  A    between atoms: _550  and  _551
REMARK  233  A    between atoms: _551  and  _552
REMARK  234  A    between atoms: _552  and  _553
REMARK  235  A    between atoms: _553  and  _554
REMARK  236  A    between atoms: _558  and  _560
REMARK  237  A    between atoms: _560  and  _561
REMARK  238  A    between atoms: _560  and  _563
REMARK  239  A    between atoms: _563  and  _564
REMARK  240  A    between atoms: _564  and  _565
REMARK  241  A    between atoms: _568  and  _570
REMARK  242  A    between atoms: _570  and  _571
REMARK  243  A    between atoms: _570  and  _573
REMARK  244  A    between atoms: _573  and  _574
REMARK  245  A    between atoms: _574  and  _575
REMARK  246  A    between atoms: _575  and  _576
REMARK  247  A    between atoms: _576  and  _577
REMARK  248  A    between atoms: _581  and  _583
REMARK  249  A    between atoms: _583  and  _584
REMARK  250  A    between atoms: _583  and  _586
REMARK  251  A    between atoms: _589  and  _591
REMARK  252  A    between atoms: _591  and  _592
REMARK  253  A    between atoms: _591  and  _594
REMARK  254  A    between atoms: _594  and  _595
REMARK  255  A    between atoms: _600  and  _602
REMARK  256  A    between atoms: _602  and  _603
REMARK  257  A    between atoms: _602  and  _605
REMARK  258  A    between atoms: _605  and  _606
REMARK  259  A    between atoms: _606  and  _607
REMARK  260  A    between atoms: _607  and  _608
REMARK  261  A    between atoms: _608  and  _609
REMARK  262  A    between atoms: _614  and  _615
REMARK  263  A    between atoms: _620  and  _622
REMARK  264  A    between atoms: _622  and  _623
REMARK  265  A    between atoms: _622  and  _625
REMARK  266  A    between atoms: _625  and  _626
REMARK  267  A    between atoms: _629  and  _631
REMARK  268  A    between atoms: _631  and  _632
REMARK  269  A    between atoms: _634  and  _636
REMARK  270  A    between atoms: _636  and  _637
REMARK  271  A    between atoms: _636  and  _639
REMARK  272  A    between atoms: _639  and  _640
REMARK                            x       y       z     vdW  Elec       q    Type
REMARK                         _______ _______ _______ _____ _____    ______ ____
ROOT
ATOM      1  O   HOH     1      -3.489  94.281  31.122  0.00  0.00    +0.000 OA
ENDROOT
TORSDOF 0
REMARK  Name = ../refined-set-2016/4zl4/4zl4_pocket.pdb
REMARK  272 active torsions:
REMARK  status: ('A' for Active; 'I' for Inactive)
REMARK    1  A    between atoms: _1  and  _3
REMARK    2  A    between atoms: _3  and  _4
REMARK    3  A    between atoms: _3  and  _6
REMARK    4  A    between atoms: _6  and  _7
REMARK    5  A    between atoms: _10  and  _12
REMARK    6  A    between atoms: _12  and  _13
REMARK    7  A    between atoms: _12  and  _15
REMARK    8  A    between atoms: _15  and  _16
REMARK    9  A    between atoms: _19  and  _21
REMARK   10  A    between atoms: _21  and  _22
REMARK   11  A    between atoms: _21  and  _24
REMARK   12  A    between atoms: _24  and  _25
REMARK   13  A    between atoms: _28  and  _30
REMARK   14  A    between atoms: _30  and  _31
REMARK   15  A    between atoms: _30  and  _33
REMARK   16  A    between atoms: _33  and  _34
REMARK   17  A    between atoms: _34  and  _35
REMARK   18  A    between atoms: _38  and  _40
REMARK   19  A    between atoms: _40  and  _41
REMARK   20  A    between atoms: _40  and  _43
REMARK   21  A    between atoms: _43  and  _44
REMARK   22  A    between atoms: _49  and  _50
REMARK   23  A    between atoms: _52  and  _54
REMARK   24  A    between atoms: _54  and  _55
REMARK   25  A    between atoms: _58  and  _60
REMARK   26  A    between atoms: _60  and  _61
REMARK   27  A    between atoms: _60  and  _63
REMARK   28  A    between atoms: _63  and  _64
REMARK   29  A    between atoms: _69  and  _70
REMARK   30  A    between atoms: _72  and  _74
REMARK   31  A    between atoms: _74  and  _75
REMARK   32  A    between atoms: _74  and  _77
REMARK   33  A    between atoms: _77  and  _78
REMARK   34  A    between atoms: _83  and  _84
REMARK   35  A    between atoms: _86  and  _88
REMARK   36  A    between atoms: _88  and  _89
REMARK   37  A    between atoms: _88  and  _91
REMARK   38  A    between atoms: _91  and  _92
REMARK   39  A    between atoms: _95  and  _97
REMARK   40  A    between atoms: _97  and  _98
REMARK   41  A    between atoms: _97  and  _100
REMARK   42  A    between atoms: _100  and  _101
REMARK   43  A    between atoms: _104  and  _106
REMARK   44  A    between atoms: _106  and  _107
REMARK   45  A    between atoms: _106  and  _109
REMARK   46  A    between atoms: _109  and  _110
REMARK   47  A    between atoms: _113  and  _115
REMARK   48  A    between atoms: _115  and  _116
REMARK   49  A    between atoms: _115  and  _118
REMARK   50  A    between atoms: _118  and  _119
REMARK   51  A    between atoms: _122  and  _124
REMARK   52  A    between atoms: _124  and  _125
REMARK   53  A    between atoms: _127  and  _129
REMARK   54  A    between atoms: _129  and  _130
REMARK   55  A    between atoms: _129  and  _132
REMARK   56  A    between atoms: _132  and  _133
REMARK   57  A    between atoms: _135  and  _137
REMARK   58  A    between atoms: _137  and  _138
REMARK   59  A    between atoms: _137  and  _140
REMARK   60  A    between atoms: _140  and  _141
REMARK   61  A    between atoms: _143  and  _145
REMARK   62  A    between atoms: _145  and  _146
REMARK   63  A    between atoms: _145  and  _148
REMARK   64  A    between atoms: _148  and  _149
REMARK   65  A    between atoms: _151  and  _153
REMARK   66  A    between atoms: _153  and  _154
REMARK   67  A    between atoms: _153  and  _156
REMARK   68  A    between atoms: _156  and  _157
REMARK   69  A    between atoms: _162  and  _164
REMARK   70  A    between atoms: _164  and  _165
REMARK   71  A    between atoms: _164  and  _167
REMARK   72  A    between atoms: _167  and  _168
REMARK   73  A    between atoms: _168  and  _169
REMARK   74  A    between atoms: _174  and  _176
REMARK   75  A    between atoms: _176  and  _177
REMARK   76  A    between atoms: _176  and  _179
REMARK   77  A    between atoms: _179  and  _180
REMARK   78  A    between atoms: _182  and  _184
REMARK   79  A    between atoms: _184  and  _185
REMARK   80  A    between atoms: _184  and  _187
REMARK   81  A    between atoms: _187  and  _188
REMARK   82  A    between atoms: _193  and  _194
REMARK   83  A    between atoms: _196  and  _198
REMARK   84  A    between atoms: _198  and  _199
REMARK   85  A    between atoms: _198  and  _201
REMARK   86  A    between atoms: _203  and  _205
REMARK   87  A    between atoms: _205  and  _206
REMARK   88  A    between atoms: _205  and  _208
REMARK   89  A    between atoms: _208  and  _209
REMARK   90  A    between atoms: _209  and  _210
REMARK   91  A    between atoms: _213  and  _215
REMARK   92  A    between atoms: _215  and  _216
REMARK   93  A    between atoms: _218  and  _220
REMARK   94  A    between atoms: _220  and  _221
REMARK   95  A    between atoms: _220  and  _223
REMARK   96  A    between atoms: _223  and  _224
REMARK   97  A    between atoms: _226  and  _228
REMARK   98  A    between atoms: _228  and  _229
REMARK   99  A    between atoms: _228  and  _231
REMARK  100  A    between atoms: _231  and  _232
REMARK  101  A    between atoms: _235  and  _237
REMARK  102  A    between atoms: _237  and  _238
REMARK  103  A    between atoms: _237  and  _240
REMARK  104  A    between atoms: _240  and  _241
REMARK  105  A    between atoms: _241  and  _242
REMARK  106  A    between atoms: _245  and  _247
REMARK  107  A    between atoms: _247  and  _248
REMARK  108  A    between atoms: _247  and  _250
REMARK  109  A    between atoms: _250  and  _251
REMARK  110  A    between atoms: _253  and  _255
REMARK  111  A    between atoms: _255  and  _256
REMARK  112  A    between atoms: _255  and  _258
REMARK  113  A    between atoms: _258  and  _259
REMARK  114  A    between atoms: _262  and  _264
REMARK  115  A    between atoms: _264  and  _265
REMARK  116  A    between atoms: _264  and  _267
REMARK  117  A    between atoms: _267  and  _268
REMARK  118  A    between atoms: _274  and  _276
REMARK  119  A    between atoms: _276  and  _277
REMARK  120  A    between atoms: _276  and  _279
REMARK  121  A    between atoms: _279  and  _280
REMARK  122  A    between atoms: _283  and  _285
REMARK  123  A    between atoms: _285  and  _286
REMARK  124  A    between atoms: _285  and  _288
REMARK  125  A    between atoms: _288  and  _289
REMARK  126  A    between atoms: _294  and  _295
REMARK  127  A    between atoms: _297  and  _299
REMARK  128  A    between atoms: _299  and  _300
REMARK  129  A    between atoms: _299  and  _302
REMARK  130  A    between atoms: _302  and  _303
REMARK  131  A    between atoms: _303  and  _304
REMARK  132  A    between atoms: _309  and  _311
REMARK  133  A    between atoms: _311  and  _312
REMARK  134  A    between atoms: _311  and  _314
REMARK  135  A    between atoms: _314  and  _315
REMARK  136  A    between atoms: _315  and  _316
REMARK  137  A    between atoms: _321  and  _323
REMARK  138  A    between atoms: _323  and  _324
REMARK  139  A    between atoms: _327  and  _329
REMARK  140  A    between atoms: _329  and  _330
REMARK  141  A    between atoms: _332  and  _334
REMARK  142  A    between atoms: _334  and  _335
REMARK  143  A    between atoms: _334  and  _337
REMARK  144  A    between atoms: _340  and  _342
REMARK  145  A    between atoms: _342  and  _343
REMARK  146  A    between atoms: _342  and  _345
REMARK  147  A    between atoms: _345  and  _346
REMARK  148  A    between atoms: _349  and  _351
REMARK  149  A    between atoms: _351  and  _352
REMARK  150  A    between atoms: _354  and  _356
REMARK  151  A    between atoms: _356  and  _357
REMARK  152  A    between atoms: _356  and  _359
REMARK  153  A    between atoms: _359  and  _360
REMARK  154  A    between atoms: _360  and  _361
REMARK  155  A    between atoms: _363  and  _365
REMARK  156  A    between atoms: _365  and  _366
REMARK  157  A    between atoms: _365  and  _368
REMARK  158  A    between atoms: _368  and  _369
REMARK  159  A    between atoms: _371  and  _373
REMARK  160  A    between atoms: _373  and  _374
REMARK  161  A    between atoms: _373  and  _376
REMARK  162  A    between atoms: _376  and  _377
REMARK  163  A    between atoms: _377  and  _378
REMARK  164  A    between atoms: _378  and  _379
REMARK  165  A    between atoms: _379  and  _380
REMARK  166  A    between atoms: _384  and  _386
REMARK  167  A    between atoms: _386  and  _387
REMARK  168  A    between atoms: _386  and  _389
REMARK  169  A    between atoms: _389  and  _390
REMARK  170  A    between atoms: _390  and  _391
REMARK  171  A    between atoms: _391  and  _392
REMARK  172  A    between atoms: _401  and  _403
REMARK  173  A    between atoms: _403  and  _404
REMARK  174  A    between atoms: _403  and  _406
REMARK  175  A    between atoms: _406  and  _407
REMARK  176  A    between atoms: _412  and  _413
REMARK  177  A    between atoms: _415  and  _417
REMARK  178  A    between atoms: _417  and  _418
REMARK  179  A    between atoms: _417  and  _420
REMARK  180  A    between atoms: _420  and  _421
REMARK  181  A    between atoms: _426  and  _427
REMARK  182  A    between atoms: _429  and  _431
REMARK  183  A    between atoms: _431  and  _432
REMARK  184  A    between atoms: _431  and  _434
REMARK  185  A    between atoms: _434  and  _435
REMARK  186  A    between atoms: _440  and  _441
REMARK  187  A    between atoms: _443  and  _445
REMARK  188  A    between atoms: _445  and  _446
REMARK  189  A    between atoms: _445  and  _448
REMARK  190  A    between atoms: _448  and  _449
REMARK  191  A    between atoms: _452  and  _454
REMARK  192  A    between atoms: _454  and  _455
REMARK  193  A    between atoms: _454  and  _457
REMARK  194  A    between atoms: _460  and  _462
REMARK  195  A    between atoms: _462  and  _463
REMARK  196  A    between atoms: _462  and  _465
REMARK  197  A    between atoms: _465  and  _466
REMARK  198  A    between atoms: _469  and  _471
REMARK  199  A    between atoms: _471  and  _472
REMARK  200  A    between atoms: _471  and  _474
REMARK  201  A    between atoms: _474  and  _475
REMARK  202  A    between atoms: _477  and  _479
REMARK  203  A    between atoms: _479  and  _480
REMARK  204  A    between atoms: _482  and  _484
REMARK  205  A    between atoms: _484  and  _485
REMARK  206  A    between atoms: _484  and  _487
REMARK  207  A    between atoms: _487  and  _488
REMARK  208  A    between atoms: _490  and  _492
REMARK  209  A    between atoms: _492  and  _493
REMARK  210  A    between atoms: _492  and  _495
REMARK  211  A    between atoms: _495  and  _496
REMARK  212  A    between atoms: _499  and  _501
REMARK  213  A    between atoms: _501  and  _502
REMARK  214  A    between atoms: _501  and  _504
REMARK  215  A    between atoms: _504  and  _505
REMARK  216  A    between atoms: _511  and  _513
REMARK  217  A    between atoms: _513  and  _514
REMARK  218  A    between atoms: _513  and  _516
REMARK  219  A    between atoms: _516  and  _517
REMARK  220  A    between atoms: _520  and  _522
REMARK  221  A    between atoms: _522  and  _523
REMARK  222  A    between atoms: _522  and  _525
REMARK  223  A    between atoms: _525  and  _526
REMARK  224  A    between atoms: _531  and  _533
REMARK  225  A    between atoms: _533  and  _534
REMARK  226  A    between atoms: _533  and  _536
REMARK  227  A    between atoms: _536  and  _537
REMARK  228  A    between atoms: _542  and  _543
REMARK  229  A    between atoms: _545  and  _547
REMARK  230  A    between atoms: _547  and  _548
REMARK  231  A    between atoms: _547  and  _550
REMARK  232  A    between atoms: _550  and  _551
REMARK  233  A    between atoms: _551  and  _552
REMARK  234  A    between atoms: _552  and  _553
REMARK  235  A    between atoms: _553  and  _554
REMARK  236  A    between atoms: _558  and  _560
REMARK  237  A    between atoms: _560  and  _561
REMARK  238  A    between atoms: _560  and  _563
REMARK  239  A    between atoms: _563  and  _564
REMARK  240  A    between atoms: _564  and  _565
REMARK  241  A    between atoms: _568  and  _570
REMARK  242  A    between atoms: _570  and  _571
REMARK  243  A    between atoms: _570  and  _573
REMARK  244  A    between atoms: _573  and  _574
REMARK  245  A    between atoms: _574  and  _575
REMARK  246  A    between atoms: _575  and  _576
REMARK  247  A    between atoms: _576  and  _577
REMARK  248  A    between atoms: _581  and  _583
REMARK  249  A    between atoms: _583  and  _584
REMARK  250  A    between atoms: _583  and  _586
REMARK  251  A    between atoms: _589  and  _591
REMARK  252  A    between atoms: _591  and  _592
REMARK  253  A    between atoms: _591  and  _594
REMARK  254  A    between atoms: _594  and  _595
REMARK  255  A    between atoms: _600  and  _602
REMARK  256  A    between atoms: _602  and  _603
REMARK  257  A    between atoms: _602  and  _605
REMARK  258  A    between atoms: _605  and  _606
REMARK  259  A    between atoms: _606  and  _607
REMARK  260  A    between atoms: _607  and  _608
REMARK  261  A    between atoms: _608  and  _609
REMARK  262  A    between atoms: _614  and  _615
REMARK  263  A    between atoms: _620  and  _622
REMARK  264  A    between atoms: _622  and  _623
REMARK  265  A    between atoms: _622  and  _625
REMARK  266  A    between atoms: _625  and  _626
REMARK  267  A    between atoms: _629  and  _631
REMARK  268  A    between atoms: _631  and  _632
REMARK  269  A    between atoms: _634  and  _636
REMARK  270  A    between atoms: _636  and  _637
REMARK  271  A    between atoms: _636  and  _639
REMARK  272  A    between atoms: _639  and  _640
REMARK                            x       y       z     vdW  Elec       q    Type
REMARK                         _______ _______ _______ _____ _____    ______ ____
ROOT
ATOM      1  O   HOH     1      -5.589  93.974  52.086  0.00  0.00    +0.000 OA
ENDROOT
TORSDOF 0
REMARK  Name = ../refined-set-2016/4zl4/4zl4_pocket.pdb
REMARK  272 active torsions:
REMARK  status: ('A' for Active; 'I' for Inactive)
REMARK    1  A    between atoms: _1  and  _3
REMARK    2  A    between atoms: _3  and  _4
REMARK    3  A    between atoms: _3  and  _6
REMARK    4  A    between atoms: _6  and  _7
REMARK    5  A    between atoms: _10  and  _12
REMARK    6  A    between atoms: _12  and  _13
REMARK    7  A    between atoms: _12  and  _15
REMARK    8  A    between atoms: _15  and  _16
REMARK    9  A    between atoms: _19  and  _21
REMARK   10  A    between atoms: _21  and  _22
REMARK   11  A    between atoms: _21  and  _24
REMARK   12  A    between atoms: _24  and  _25
REMARK   13  A    between atoms: _28  and  _30
REMARK   14  A    between atoms: _30  and  _31
REMARK   15  A    between atoms: _30  and  _33
REMARK   16  A    between atoms: _33  and  _34
REMARK   17  A    between atoms: _34  and  _35
REMARK   18  A    between atoms: _38  and  _40
REMARK   19  A    between atoms: _40  and  _41
REMARK   20  A    between atoms: _40  and  _43
REMARK   21  A    between atoms: _43  and  _44
REMARK   22  A    between atoms: _49  and  _50
REMARK   23  A    between atoms: _52  and  _54
REMARK   24  A    between atoms: _54  and  _55
REMARK   25  A    between atoms: _58  and  _60
REMARK   26  A    between atoms: _60  and  _61
REMARK   27  A    between atoms: _60  and  _63
REMARK   28  A    between atoms: _63  and  _64
REMARK   29  A    between atoms: _69  and  _70
REMARK   30  A    between atoms: _72  and  _74
REMARK   31  A    between atoms: _74  and  _75
REMARK   32  A    between atoms: _74  and  _77
REMARK   33  A    between atoms: _77  and  _78
REMARK   34  A    between atoms: _83  and  _84
REMARK   35  A    between atoms: _86  and  _88
REMARK   36  A    between atoms: _88  and  _89
REMARK   37  A    between atoms: _88  and  _91
REMARK   38  A    between atoms: _91  and  _92
REMARK   39  A    between atoms: _95  and  _97
REMARK   40  A    between atoms: _97  and  _98
REMARK   41  A    between atoms: _97  and  _100
REMARK   42  A    between atoms: _100  and  _101
REMARK   43  A    between atoms: _104  and  _106
REMARK   44  A    between atoms: _106  and  _107
REMARK   45  A    between atoms: _106  and  _109
REMARK   46  A    between atoms: _109  and  _110
REMARK   47  A    between atoms: _113  and  _115
REMARK   48  A    between atoms: _115  and  _116
REMARK   49  A    between atoms: _115  and  _118
REMARK   50  A    between atoms: _118  and  _119
REMARK   51  A    between atoms: _122  and  _124
REMARK   52  A    between atoms: _124  and  _125
REMARK   53  A    between atoms: _127  and  _129
REMARK   54  A    between atoms: _129  and  _130
REMARK   55  A    between atoms: _129  and  _132
REMARK   56  A    between atoms: _132  and  _133
REMARK   57  A    between atoms: _135  and  _137
REMARK   58  A    between atoms: _137  and  _138
REMARK   59  A    between atoms: _137  and  _140
REMARK   60  A    between atoms: _140  and  _141
REMARK   61  A    between atoms: _143  and  _145
REMARK   62  A    between atoms: _145  and  _146
REMARK   63  A    between atoms: _145  and  _148
REMARK   64  A    between atoms: _148  and  _149
REMARK   65  A    between atoms: _151  and  _153
REMARK   66  A    between atoms: _153  and  _154
REMARK   67  A    between atoms: _153  and  _156
REMARK   68  A    between atoms: _156  and  _157
REMARK   69  A    between atoms: _162  and  _164
REMARK   70  A    between atoms: _164  and  _165
REMARK   71  A    between atoms: _164  and  _167
REMARK   72  A    between atoms: _167  and  _168
REMARK   73  A    between atoms: _168  and  _169
REMARK   74  A    between atoms: _174  and  _176
REMARK   75  A    between atoms: _176  and  _177
REMARK   76  A    between atoms: _176  and  _179
REMARK   77  A    between atoms: _179  and  _180
REMARK   78  A    between atoms: _182  and  _184
REMARK   79  A    between atoms: _184  and  _185
REMARK   80  A    between atoms: _184  and  _187
REMARK   81  A    between atoms: _187  and  _188
REMARK   82  A    between atoms: _193  and  _194
REMARK   83  A    between atoms: _196  and  _198
REMARK   84  A    between atoms: _198  and  _199
REMARK   85  A    between atoms: _198  and  _201
REMARK   86  A    between atoms: _203  and  _205
REMARK   87  A    between atoms: _205  and  _206
REMARK   88  A    between atoms: _205  and  _208
REMARK   89  A    between atoms: _208  and  _209
REMARK   90  A    between atoms: _209  and  _210
REMARK   91  A    between atoms: _213  and  _215
REMARK   92  A    between atoms: _215  and  _216
REMARK   93  A    between atoms: _218  and  _220
REMARK   94  A    between atoms: _220  and  _221
REMARK   95  A    between atoms: _220  and  _223
REMARK   96  A    between atoms: _223  and  _224
REMARK   97  A    between atoms: _226  and  _228
REMARK   98  A    between atoms: _228  and  _229
REMARK   99  A    between atoms: _228  and  _231
REMARK  100  A    between atoms: _231  and  _232
REMARK  101  A    between atoms: _235  and  _237
REMARK  102  A    between atoms: _237  and  _238
REMARK  103  A    between atoms: _237  and  _240
REMARK  104  A    between atoms: _240  and  _241
REMARK  105  A    between atoms: _241  and  _242
REMARK  106  A    between atoms: _245  and  _247
REMARK  107  A    between atoms: _247  and  _248
REMARK  108  A    between atoms: _247  and  _250
REMARK  109  A    between atoms: _250  and  _251
REMARK  110  A    between atoms: _253  and  _255
REMARK  111  A    between atoms: _255  and  _256
REMARK  112  A    between atoms: _255  and  _258
REMARK  113  A    between atoms: _258  and  _259
REMARK  114  A    between atoms: _262  and  _264
REMARK  115  A    between atoms: _264  and  _265
REMARK  116  A    between atoms: _264  and  _267
REMARK  117  A    between atoms: _267  and  _268
REMARK  118  A    between atoms: _274  and  _276
REMARK  119  A    between atoms: _276  and  _277
REMARK  120  A    between atoms: _276  and  _279
REMARK  121  A    between atoms: _279  and  _280
REMARK  122  A    between atoms: _283  and  _285
REMARK  123  A    between atoms: _285  and  _286
REMARK  124  A    between atoms: _285  and  _288
REMARK  125  A    between atoms: _288  and  _289
REMARK  126  A    between atoms: _294  and  _295
REMARK  127  A    between atoms: _297  and  _299
REMARK  128  A    between atoms: _299  and  _300
REMARK  129  A    between atoms: _299  and  _302
REMARK  130  A    between atoms: _302  and  _303
REMARK  131  A    between atoms: _303  and  _304
REMARK  132  A    between atoms: _309  and  _311
REMARK  133  A    between atoms: _311  and  _312
REMARK  134  A    between atoms: _311  and  _314
REMARK  135  A    between atoms: _314  and  _315
REMARK  136  A    between atoms: _315  and  _316
REMARK  137  A    between atoms: _321  and  _323
REMARK  138  A    between atoms: _323  and  _324
REMARK  139  A    between atoms: _327  and  _329
REMARK  140  A    between atoms: _329  and  _330
REMARK  141  A    between atoms: _332  and  _334
REMARK  142  A    between atoms: _334  and  _335
REMARK  143  A    between atoms: _334  and  _337
REMARK  144  A    between atoms: _340  and  _342
REMARK  145  A    between atoms: _342  and  _343
REMARK  146  A    between atoms: _342  and  _345
REMARK  147  A    between atoms: _345  and  _346
REMARK  148  A    between atoms: _349  and  _351
REMARK  149  A    between atoms: _351  and  _352
REMARK  150  A    between atoms: _354  and  _356
REMARK  151  A    between atoms: _356  and  _357
REMARK  152  A    between atoms: _356  and  _359
REMARK  153  A    between atoms: _359  and  _360
REMARK  154  A    between atoms: _360  and  _361
REMARK  155  A    between atoms: _363  and  _365
REMARK  156  A    between atoms: _365  and  _366
REMARK  157  A    between atoms: _365  and  _368
REMARK  158  A    between atoms: _368  and  _369
REMARK  159  A    between atoms: _371  and  _373
REMARK  160  A    between atoms: _373  and  _374
REMARK  161  A    between atoms: _373  and  _376
REMARK  162  A    between atoms: _376  and  _377
REMARK  163  A    between atoms: _377  and  _378
REMARK  164  A    between atoms: _378  and  _379
REMARK  165  A    between atoms: _379  and  _380
REMARK  166  A    between atoms: _384  and  _386
REMARK  167  A    between atoms: _386  and  _387
REMARK  168  A    between atoms: _386  and  _389
REMARK  169  A    between atoms: _389  and  _390
REMARK  170  A    between atoms: _390  and  _391
REMARK  171  A    between atoms: _391  and  _392
REMARK  172  A    between atoms: _401  and  _403
REMARK  173  A    between atoms: _403  and  _404
REMARK  174  A    between atoms: _403  and  _406
REMARK  175  A    between atoms: _406  and  _407
REMARK  176  A    between atoms: _412  and  _413
REMARK  177  A    between atoms: _415  and  _417
REMARK  178  A    between atoms: _417  and  _418
REMARK  179  A    between atoms: _417  and  _420
REMARK  180  A    between atoms: _420  and  _421
REMARK  181  A    between atoms: _426  and  _427
REMARK  182  A    between atoms: _429  and  _431
REMARK  183  A    between atoms: _431  and  _432
REMARK  184  A    between atoms: _431  and  _434
REMARK  185  A    between atoms: _434  and  _435
REMARK  186  A    between atoms: _440  and  _441
REMARK  187  A    between atoms: _443  and  _445
REMARK  188  A    between atoms: _445  and  _446
REMARK  189  A    between atoms: _445  and  _448
REMARK  190  A    between atoms: _448  and  _449
REMARK  191  A    between atoms: _452  and  _454
REMARK  192  A    between atoms: _454  and  _455
REMARK  193  A    between atoms: _454  and  _457
REMARK  194  A    between atoms: _460  and  _462
REMARK  195  A    between atoms: _462  and  _463
REMARK  196  A    between atoms: _462  and  _465
REMARK  197  A    between atoms: _465  and  _466
REMARK  198  A    between atoms: _469  and  _471
REMARK  199  A    between atoms: _471  and  _472
REMARK  200  A    between atoms: _471  and  _474
REMARK  201  A    between atoms: _474  and  _475
REMARK  202  A    between atoms: _477  and  _479
REMARK  203  A    between atoms: _479  and  _480
REMARK  204  A    between atoms: _482  and  _484
REMARK  205  A    between atoms: _484  and  _485
REMARK  206  A    between atoms: _484  and  _487
REMARK  207  A    between atoms: _487  and  _488
REMARK  208  A    between atoms: _490  and  _492
REMARK  209  A    between atoms: _492  and  _493
REMARK  210  A    between atoms: _492  and  _495
REMARK  211  A    between atoms: _495  and  _496
REMARK  212  A    between atoms: _499  and  _501
REMARK  213  A    between atoms: _501  and  _502
REMARK  214  A    between atoms: _501  and  _504
REMARK  215  A    between atoms: _504  and  _505
REMARK  216  A    between atoms: _511  and  _513
REMARK  217  A    between atoms: _513  and  _514
REMARK  218  A    between atoms: _513  and  _516
REMARK  219  A    between atoms: _516  and  _517
REMARK  220  A    between atoms: _520  and  _522
REMARK  221  A    between atoms: _522  and  _523
REMARK  222  A    between atoms: _522  and  _525
REMARK  223  A    between atoms: _525  and  _526
REMARK  224  A    between atoms: _531  and  _533
REMARK  225  A    between atoms: _533  and  _534
REMARK  226  A    between atoms: _533  and  _536
REMARK  227  A    between atoms: _536  and  _537
REMARK  228  A    between atoms: _542  and  _543
REMARK  229  A    between atoms: _545  and  _547
REMARK  230  A    between atoms: _547  and  _548
REMARK  231  A    between atoms: _547  and  _550
REMARK  232  A    between atoms: _550  and  _551
REMARK  233  A    between atoms: _551  and  _552
REMARK  234  A    between atoms: _552  and  _553
REMARK  235  A    between atoms: _553  and  _554
REMARK  236  A    between atoms: _558  and  _560
REMARK  237  A    between atoms: _560  and  _561
REMARK  238  A    between atoms: _560  and  _563
REMARK  239  A    between atoms: _563  and  _564
REMARK  240  A    between atoms: _564  and  _565
REMARK  241  A    between atoms: _568  and  _570
REMARK  242  A    between atoms: _570  and  _571
REMARK  243  A    between atoms: _570  and  _573
REMARK  244  A    between atoms: _573  and  _574
REMARK  245  A    between atoms: _574  and  _575
REMARK  246  A    between atoms: _575  and  _576
REMARK  247  A    between atoms: _576  and  _577
REMARK  248  A    between atoms: _581  and  _583
REMARK  249  A    between atoms: _583  and  _584
REMARK  250  A    between atoms: _583  and  _586
REMARK  251  A    between atoms: _589  and  _591
REMARK  252  A    between atoms: _591  and  _592
REMARK  253  A    between atoms: _591  and  _594
REMARK  254  A    between atoms: _594  and  _595
REMARK  255  A    between atoms: _600  and  _602
REMARK  256  A    between atoms: _602  and  _603
REMARK  257  A    between atoms: _602  and  _605
REMARK  258  A    between atoms: _605  and  _606
REMARK  259  A    between atoms: _606  and  _607
REMARK  260  A    between atoms: _607  and  _608
REMARK  261  A    between atoms: _608  and  _609
REMARK  262  A    between atoms: _614  and  _615
REMARK  263  A    between atoms: _620  and  _622
REMARK  264  A    between atoms: _622  and  _623
REMARK  265  A    between atoms: _622  and  _625
REMARK  266  A    between atoms: _625  and  _626
REMARK  267  A    between atoms: _629  and  _631
REMARK  268  A    between atoms: _631  and  _632
REMARK  269  A    between atoms: _634  and  _636
REMARK  270  A    between atoms: _636  and  _637
REMARK  271  A    between atoms: _636  and  _639
REMARK  272  A    between atoms: _639  and  _640
REMARK                            x       y       z     vdW  Elec       q    Type
REMARK                         _______ _______ _______ _____ _____    ______ ____
ROOT
ATOM      1  O   HOH     1       5.221  96.778  39.920  0.00  0.00    +0.000 OA
ENDROOT
TORSDOF 0
REMARK  Name = ../refined-set-2016/4zl4/4zl4_pocket.pdb
REMARK  272 active torsions:
REMARK  status: ('A' for Active; 'I' for Inactive)
REMARK    1  A    between atoms: _1  and  _3
REMARK    2  A    between atoms: _3  and  _4
REMARK    3  A    between atoms: _3  and  _6
REMARK    4  A    between atoms: _6  and  _7
REMARK    5  A    between atoms: _10  and  _12
REMARK    6  A    between atoms: _12  and  _13
REMARK    7  A    between atoms: _12  and  _15
REMARK    8  A    between atoms: _15  and  _16
REMARK    9  A    between atoms: _19  and  _21
REMARK   10  A    between atoms: _21  and  _22
REMARK   11  A    between atoms: _21  and  _24
REMARK   12  A    between atoms: _24  and  _25
REMARK   13  A    between atoms: _28  and  _30
REMARK   14  A    between atoms: _30  and  _31
REMARK   15  A    between atoms: _30  and  _33
REMARK   16  A    between atoms: _33  and  _34
REMARK   17  A    between atoms: _34  and  _35
REMARK   18  A    between atoms: _38  and  _40
REMARK   19  A    between atoms: _40  and  _41
REMARK   20  A    between atoms: _40  and  _43
REMARK   21  A    between atoms: _43  and  _44
REMARK   22  A    between atoms: _49  and  _50
REMARK   23  A    between atoms: _52  and  _54
REMARK   24  A    between atoms: _54  and  _55
REMARK   25  A    between atoms: _58  and  _60
REMARK   26  A    between atoms: _60  and  _61
REMARK   27  A    between atoms: _60  and  _63
REMARK   28  A    between atoms: _63  and  _64
REMARK   29  A    between atoms: _69  and  _70
REMARK   30  A    between atoms: _72  and  _74
REMARK   31  A    between atoms: _74  and  _75
REMARK   32  A    between atoms: _74  and  _77
REMARK   33  A    between atoms: _77  and  _78
REMARK   34  A    between atoms: _83  and  _84
REMARK   35  A    between atoms: _86  and  _88
REMARK   36  A    between atoms: _88  and  _89
REMARK   37  A    between atoms: _88  and  _91
REMARK   38  A    between atoms: _91  and  _92
REMARK   39  A    between atoms: _95  and  _97
REMARK   40  A    between atoms: _97  and  _98
REMARK   41  A    between atoms: _97  and  _100
REMARK   42  A    between atoms: _100  and  _101
REMARK   43  A    between atoms: _104  and  _106
REMARK   44  A    between atoms: _106  and  _107
REMARK   45  A    between atoms: _106  and  _109
REMARK   46  A    between atoms: _109  and  _110
REMARK   47  A    between atoms: _113  and  _115
REMARK   48  A    between atoms: _115  and  _116
REMARK   49  A    between atoms: _115  and  _118
REMARK   50  A    between atoms: _118  and  _119
REMARK   51  A    between atoms: _122  and  _124
REMARK   52  A    between atoms: _124  and  _125
REMARK   53  A    between atoms: _127  and  _129
REMARK   54  A    between atoms: _129  and  _130
REMARK   55  A    between atoms: _129  and  _132
REMARK   56  A    between atoms: _132  and  _133
REMARK   57  A    between atoms: _135  and  _137
REMARK   58  A    between atoms: _137  and  _138
REMARK   59  A    between atoms: _137  and  _140
REMARK   60  A    between atoms: _140  and  _141
REMARK   61  A    between atoms: _143  and  _145
REMARK   62  A    between atoms: _145  and  _146
REMARK   63  A    between atoms: _145  and  _148
REMARK   64  A    between atoms: _148  and  _149
REMARK   65  A    between atoms: _151  and  _153
REMARK   66  A    between atoms: _153  and  _154
REMARK   67  A    between atoms: _153  and  _156
REMARK   68  A    between atoms: _156  and  _157
REMARK   69  A    between atoms: _162  and  _164
REMARK   70  A    between atoms: _164  and  _165
REMARK   71  A    between atoms: _164  and  _167
REMARK   72  A    between atoms: _167  and  _168
REMARK   73  A    between atoms: _168  and  _169
REMARK   74  A    between atoms: _174  and  _176
REMARK   75  A    between atoms: _176  and  _177
REMARK   76  A    between atoms: _176  and  _179
REMARK   77  A    between atoms: _179  and  _180
REMARK   78  A    between atoms: _182  and  _184
REMARK   79  A    between atoms: _184  and  _185
REMARK   80  A    between atoms: _184  and  _187
REMARK   81  A    between atoms: _187  and  _188
REMARK   82  A    between atoms: _193  and  _194
REMARK   83  A    between atoms: _196  and  _198
REMARK   84  A    between atoms: _198  and  _199
REMARK   85  A    between atoms: _198  and  _201
REMARK   86  A    between atoms: _203  and  _205
REMARK   87  A    between atoms: _205  and  _206
REMARK   88  A    between atoms: _205  and  _208
REMARK   89  A    between atoms: _208  and  _209
REMARK   90  A    between atoms: _209  and  _210
REMARK   91  A    between atoms: _213  and  _215
REMARK   92  A    between atoms: _215  and  _216
REMARK   93  A    between atoms: _218  and  _220
REMARK   94  A    between atoms: _220  and  _221
REMARK   95  A    between atoms: _220  and  _223
REMARK   96  A    between atoms: _223  and  _224
REMARK   97  A    between atoms: _226  and  _228
REMARK   98  A    between atoms: _228  and  _229
REMARK   99  A    between atoms: _228  and  _231
REMARK  100  A    between atoms: _231  and  _232
REMARK  101  A    between atoms: _235  and  _237
REMARK  102  A    between atoms: _237  and  _238
REMARK  103  A    between atoms: _237  and  _240
REMARK  104  A    between atoms: _240  and  _241
REMARK  105  A    between atoms: _241  and  _242
REMARK  106  A    between atoms: _245  and  _247
REMARK  107  A    between atoms: _247  and  _248
REMARK  108  A    between atoms: _247  and  _250
REMARK  109  A    between atoms: _250  and  _251
REMARK  110  A    between atoms: _253  and  _255
REMARK  111  A    between atoms: _255  and  _256
REMARK  112  A    between atoms: _255  and  _258
REMARK  113  A    between atoms: _258  and  _259
REMARK  114  A    between atoms: _262  and  _264
REMARK  115  A    between atoms: _264  and  _265
REMARK  116  A    between atoms: _264  and  _267
REMARK  117  A    between atoms: _267  and  _268
REMARK  118  A    between atoms: _274  and  _276
REMARK  119  A    between atoms: _276  and  _277
REMARK  120  A    between atoms: _276  and  _279
REMARK  121  A    between atoms: _279  and  _280
REMARK  122  A    between atoms: _283  and  _285
REMARK  123  A    between atoms: _285  and  _286
REMARK  124  A    between atoms: _285  and  _288
REMARK  125  A    between atoms: _288  and  _289
REMARK  126  A    between atoms: _294  and  _295
REMARK  127  A    between atoms: _297  and  _299
REMARK  128  A    between atoms: _299  and  _300
REMARK  129  A    between atoms: _299  and  _302
REMARK  130  A    between atoms: _302  and  _303
REMARK  131  A    between atoms: _303  and  _304
REMARK  132  A    between atoms: _309  and  _311
REMARK  133  A    between atoms: _311  and  _312
REMARK  134  A    between atoms: _311  and  _314
REMARK  135  A    between atoms: _314  and  _315
REMARK  136  A    between atoms: _315  and  _316
REMARK  137  A    between atoms: _321  and  _323
REMARK  138  A    between atoms: _323  and  _324
REMARK  139  A    between atoms: _327  and  _329
REMARK  140  A    between atoms: _329  and  _330
REMARK  141  A    between atoms: _332  and  _334
REMARK  142  A    between atoms: _334  and  _335
REMARK  143  A    between atoms: _334  and  _337
REMARK  144  A    between atoms: _340  and  _342
REMARK  145  A    between atoms: _342  and  _343
REMARK  146  A    between atoms: _342  and  _345
REMARK  147  A    between atoms: _345  and  _346
REMARK  148  A    between atoms: _349  and  _351
REMARK  149  A    between atoms: _351  and  _352
REMARK  150  A    between atoms: _354  and  _356
REMARK  151  A    between atoms: _356  and  _357
REMARK  152  A    between atoms: _356  and  _359
REMARK  153  A    between atoms: _359  and  _360
REMARK  154  A    between atoms: _360  and  _361
REMARK  155  A    between atoms: _363  and  _365
REMARK  156  A    between atoms: _365  and  _366
REMARK  157  A    between atoms: _365  and  _368
REMARK  158  A    between atoms: _368  and  _369
REMARK  159  A    between atoms: _371  and  _373
REMARK  160  A    between atoms: _373  and  _374
REMARK  161  A    between atoms: _373  and  _376
REMARK  162  A    between atoms: _376  and  _377
REMARK  163  A    between atoms: _377  and  _378
REMARK  164  A    between atoms: _378  and  _379
REMARK  165  A    between atoms: _379  and  _380
REMARK  166  A    between atoms: _384  and  _386
REMARK  167  A    between atoms: _386  and  _387
REMARK  168  A    between atoms: _386  and  _389
REMARK  169  A    between atoms: _389  and  _390
REMARK  170  A    between atoms: _390  and  _391
REMARK  171  A    between atoms: _391  and  _392
REMARK  172  A    between atoms: _401  and  _403
REMARK  173  A    between atoms: _403  and  _404
REMARK  174  A    between atoms: _403  and  _406
REMARK  175  A    between atoms: _406  and  _407
REMARK  176  A    between atoms: _412  and  _413
REMARK  177  A    between atoms: _415  and  _417
REMARK  178  A    between atoms: _417  and  _418
REMARK  179  A    between atoms: _417  and  _420
REMARK  180  A    between atoms: _420  and  _421
REMARK  181  A    between atoms: _426  and  _427
REMARK  182  A    between atoms: _429  and  _431
REMARK  183  A    between atoms: _431  and  _432
REMARK  184  A    between atoms: _431  and  _434
REMARK  185  A    between atoms: _434  and  _435
REMARK  186  A    between atoms: _440  and  _441
REMARK  187  A    between atoms: _443  and  _445
REMARK  188  A    between atoms: _445  and  _446
REMARK  189  A    between atoms: _445  and  _448
REMARK  190  A    between atoms: _448  and  _449
REMARK  191  A    between atoms: _452  and  _454
REMARK  192  A    between atoms: _454  and  _455
REMARK  193  A    between atoms: _454  and  _457
REMARK  194  A    between atoms: _460  and  _462
REMARK  195  A    between atoms: _462  and  _463
REMARK  196  A    between atoms: _462  and  _465
REMARK  197  A    between atoms: _465  and  _466
REMARK  198  A    between atoms: _469  and  _471
REMARK  199  A    between atoms: _471  and  _472
REMARK  200  A    between atoms: _471  and  _474
REMARK  201  A    between atoms: _474  and  _475
REMARK  202  A    between atoms: _477  and  _479
REMARK  203  A    between atoms: _479  and  _480
REMARK  204  A    between atoms: _482  and  _484
REMARK  205  A    between atoms: _484  and  _485
REMARK  206  A    between atoms: _484  and  _487
REMARK  207  A    between atoms: _487  and  _488
REMARK  208  A    between atoms: _490  and  _492
REMARK  209  A    between atoms: _492  and  _493
REMARK  210  A    between atoms: _492  and  _495
REMARK  211  A    between atoms: _495  and  _496
REMARK  212  A    between atoms: _499  and  _501
REMARK  213  A    between atoms: _501  and  _502
REMARK  214  A    between atoms: _501  and  _504
REMARK  215  A    between atoms: _504  and  _505
REMARK  216  A    between atoms: _511  and  _513
REMARK  217  A    between atoms: _513  and  _514
REMARK  218  A    between atoms: _513  and  _516
REMARK  219  A    between atoms: _516  and  _517
REMARK  220  A    between atoms: _520  and  _522
REMARK  221  A    between atoms: _522  and  _523
REMARK  222  A    between atoms: _522  and  _525
REMARK  223  A    between atoms: _525  and  _526
REMARK  224  A    between atoms: _531  and  _533
REMARK  225  A    between atoms: _533  and  _534
REMARK  226  A    between atoms: _533  and  _536
REMARK  227  A    between atoms: _536  and  _537
REMARK  228  A    between atoms: _542  and  _543
REMARK  229  A    between atoms: _545  and  _547
REMARK  230  A    between atoms: _547  and  _548
REMARK  231  A    between atoms: _547  and  _550
REMARK  232  A    between atoms: _550  and  _551
REMARK  233  A    between atoms: _551  and  _552
REMARK  234  A    between atoms: _552  and  _553
REMARK  235  A    between atoms: _553  and  _554
REMARK  236  A    between atoms: _558  and  _560
REMARK  237  A    between atoms: _560  and  _561
REMARK  238  A    between atoms: _560  and  _563
REMARK  239  A    between atoms: _563  and  _564
REMARK  240  A    between atoms: _564  and  _565
REMARK  241  A    between atoms: _568  and  _570
REMARK  242  A    between atoms: _570  and  _571
REMARK  243  A    between atoms: _570  and  _573
REMARK  244  A    between atoms: _573  and  _574
REMARK  245  A    between atoms: _574  and  _575
REMARK  246  A    between atoms: _575  and  _576
REMARK  247  A    between atoms: _576  and  _577
REMARK  248  A    between atoms: _581  and  _583
REMARK  249  A    between atoms: _583  and  _584
REMARK  250  A    between atoms: _583  and  _586
REMARK  251  A    between atoms: _589  and  _591
REMARK  252  A    between atoms: _591  and  _592
REMARK  253  A    between atoms: _591  and  _594
REMARK  254  A    between atoms: _594  and  _595
REMARK  255  A    between atoms: _600  and  _602
REMARK  256  A    between atoms: _602  and  _603
REMARK  257  A    between atoms: _602  and  _605
REMARK  258  A    between atoms: _605  and  _606
REMARK  259  A    between atoms: _606  and  _607
REMARK  260  A    between atoms: _607  and  _608
REMARK  261  A    between atoms: _608  and  _609
REMARK  262  A    between atoms: _614  and  _615
REMARK  263  A    between atoms: _620  and  _622
REMARK  264  A    between atoms: _622  and  _623
REMARK  265  A    between atoms: _622  and  _625
REMARK  266  A    between atoms: _625  and  _626
REMARK  267  A    between atoms: _629  and  _631
REMARK  268  A    between atoms: _631  and  _632
REMARK  269  A    between atoms: _634  and  _636
REMARK  270  A    between atoms: _636  and  _637
REMARK  271  A    between atoms: _636  and  _639
REMARK  272  A    between atoms: _639  and  _640
REMARK                            x       y       z     vdW  Elec       q    Type
REMARK                         _______ _______ _______ _____ _____    ______ ____
ROOT
ATOM      1  O   HOH     1      -0.465 103.235  45.216  0.00  0.00    +0.000 OA
ENDROOT
TORSDOF 0
REMARK  Name = ../refined-set-2016/4zl4/4zl4_pocket.pdb
REMARK  272 active torsions:
REMARK  status: ('A' for Active; 'I' for Inactive)
REMARK    1  A    between atoms: _1  and  _3
REMARK    2  A    between atoms: _3  and  _4
REMARK    3  A    between atoms: _3  and  _6
REMARK    4  A    between atoms: _6  and  _7
REMARK    5  A    between atoms: _10  and  _12
REMARK    6  A    between atoms: _12  and  _13
REMARK    7  A    between atoms: _12  and  _15
REMARK    8  A    between atoms: _15  and  _16
REMARK    9  A    between atoms: _19  and  _21
REMARK   10  A    between atoms: _21  and  _22
REMARK   11  A    between atoms: _21  and  _24
REMARK   12  A    between atoms: _24  and  _25
REMARK   13  A    between atoms: _28  and  _30
REMARK   14  A    between atoms: _30  and  _31
REMARK   15  A    between atoms: _30  and  _33
REMARK   16  A    between atoms: _33  and  _34
REMARK   17  A    between atoms: _34  and  _35
REMARK   18  A    between atoms: _38  and  _40
REMARK   19  A    between atoms: _40  and  _41
REMARK   20  A    between atoms: _40  and  _43
REMARK   21  A    between atoms: _43  and  _44
REMARK   22  A    between atoms: _49  and  _50
REMARK   23  A    between atoms: _52  and  _54
REMARK   24  A    between atoms: _54  and  _55
REMARK   25  A    between atoms: _58  and  _60
REMARK   26  A    between atoms: _60  and  _61
REMARK   27  A    between atoms: _60  and  _63
REMARK   28  A    between atoms: _63  and  _64
REMARK   29  A    between atoms: _69  and  _70
REMARK   30  A    between atoms: _72  and  _74
REMARK   31  A    between atoms: _74  and  _75
REMARK   32  A    between atoms: _74  and  _77
REMARK   33  A    between atoms: _77  and  _78
REMARK   34  A    between atoms: _83  and  _84
REMARK   35  A    between atoms: _86  and  _88
REMARK   36  A    between atoms: _88  and  _89
REMARK   37  A    between atoms: _88  and  _91
REMARK   38  A    between atoms: _91  and  _92
REMARK   39  A    between atoms: _95  and  _97
REMARK   40  A    between atoms: _97  and  _98
REMARK   41  A    between atoms: _97  and  _100
REMARK   42  A    between atoms: _100  and  _101
REMARK   43  A    between atoms: _104  and  _106
REMARK   44  A    between atoms: _106  and  _107
REMARK   45  A    between atoms: _106  and  _109
REMARK   46  A    between atoms: _109  and  _110
REMARK   47  A    between atoms: _113  and  _115
REMARK   48  A    between atoms: _115  and  _116
REMARK   49  A    between atoms: _115  and  _118
REMARK   50  A    between atoms: _118  and  _119
REMARK   51  A    between atoms: _122  and  _124
REMARK   52  A    between atoms: _124  and  _125
REMARK   53  A    between atoms: _127  and  _129
REMARK   54  A    between atoms: _129  and  _130
REMARK   55  A    between atoms: _129  and  _132
REMARK   56  A    between atoms: _132  and  _133
REMARK   57  A    between atoms: _135  and  _137
REMARK   58  A    between atoms: _137  and  _138
REMARK   59  A    between atoms: _137  and  _140
REMARK   60  A    between atoms: _140  and  _141
REMARK   61  A    between atoms: _143  and  _145
REMARK   62  A    between atoms: _145  and  _146
REMARK   63  A    between atoms: _145  and  _148
REMARK   64  A    between atoms: _148  and  _149
REMARK   65  A    between atoms: _151  and  _153
REMARK   66  A    between atoms: _153  and  _154
REMARK   67  A    between atoms: _153  and  _156
REMARK   68  A    between atoms: _156  and  _157
REMARK   69  A    between atoms: _162  and  _164
REMARK   70  A    between atoms: _164  and  _165
REMARK   71  A    between atoms: _164  and  _167
REMARK   72  A    between atoms: _167  and  _168
REMARK   73  A    between atoms: _168  and  _169
REMARK   74  A    between atoms: _174  and  _176
REMARK   75  A    between atoms: _176  and  _177
REMARK   76  A    between atoms: _176  and  _179
REMARK   77  A    between atoms: _179  and  _180
REMARK   78  A    between atoms: _182  and  _184
REMARK   79  A    between atoms: _184  and  _185
REMARK   80  A    between atoms: _184  and  _187
REMARK   81  A    between atoms: _187  and  _188
REMARK   82  A    between atoms: _193  and  _194
REMARK   83  A    between atoms: _196  and  _198
REMARK   84  A    between atoms: _198  and  _199
REMARK   85  A    between atoms: _198  and  _201
REMARK   86  A    between atoms: _203  and  _205
REMARK   87  A    between atoms: _205  and  _206
REMARK   88  A    between atoms: _205  and  _208
REMARK   89  A    between atoms: _208  and  _209
REMARK   90  A    between atoms: _209  and  _210
REMARK   91  A    between atoms: _213  and  _215
REMARK   92  A    between atoms: _215  and  _216
REMARK   93  A    between atoms: _218  and  _220
REMARK   94  A    between atoms: _220  and  _221
REMARK   95  A    between atoms: _220  and  _223
REMARK   96  A    between atoms: _223  and  _224
REMARK   97  A    between atoms: _226  and  _228
REMARK   98  A    between atoms: _228  and  _229
REMARK   99  A    between atoms: _228  and  _231
REMARK  100  A    between atoms: _231  and  _232
REMARK  101  A    between atoms: _235  and  _237
REMARK  102  A    between atoms: _237  and  _238
REMARK  103  A    between atoms: _237  and  _240
REMARK  104  A    between atoms: _240  and  _241
REMARK  105  A    between atoms: _241  and  _242
REMARK  106  A    between atoms: _245  and  _247
REMARK  107  A    between atoms: _247  and  _248
REMARK  108  A    between atoms: _247  and  _250
REMARK  109  A    between atoms: _250  and  _251
REMARK  110  A    between atoms: _253  and  _255
REMARK  111  A    between atoms: _255  and  _256
REMARK  112  A    between atoms: _255  and  _258
REMARK  113  A    between atoms: _258  and  _259
REMARK  114  A    between atoms: _262  and  _264
REMARK  115  A    between atoms: _264  and  _265
REMARK  116  A    between atoms: _264  and  _267
REMARK  117  A    between atoms: _267  and  _268
REMARK  118  A    between atoms: _274  and  _276
REMARK  119  A    between atoms: _276  and  _277
REMARK  120  A    between atoms: _276  and  _279
REMARK  121  A    between atoms: _279  and  _280
REMARK  122  A    between atoms: _283  and  _285
REMARK  123  A    between atoms: _285  and  _286
REMARK  124  A    between atoms: _285  and  _288
REMARK  125  A    between atoms: _288  and  _289
REMARK  126  A    between atoms: _294  and  _295
REMARK  127  A    between atoms: _297  and  _299
REMARK  128  A    between atoms: _299  and  _300
REMARK  129  A    between atoms: _299  and  _302
REMARK  130  A    between atoms: _302  and  _303
REMARK  131  A    between atoms: _303  and  _304
REMARK  132  A    between atoms: _309  and  _311
REMARK  133  A    between atoms: _311  and  _312
REMARK  134  A    between atoms: _311  and  _314
REMARK  135  A    between atoms: _314  and  _315
REMARK  136  A    between atoms: _315  and  _316
REMARK  137  A    between atoms: _321  and  _323
REMARK  138  A    between atoms: _323  and  _324
REMARK  139  A    between atoms: _327  and  _329
REMARK  140  A    between atoms: _329  and  _330
REMARK  141  A    between atoms: _332  and  _334
REMARK  142  A    between atoms: _334  and  _335
REMARK  143  A    between atoms: _334  and  _337
REMARK  144  A    between atoms: _340  and  _342
REMARK  145  A    between atoms: _342  and  _343
REMARK  146  A    between atoms: _342  and  _345
REMARK  147  A    between atoms: _345  and  _346
REMARK  148  A    between atoms: _349  and  _351
REMARK  149  A    between atoms: _351  and  _352
REMARK  150  A    between atoms: _354  and  _356
REMARK  151  A    between atoms: _356  and  _357
REMARK  152  A    between atoms: _356  and  _359
REMARK  153  A    between atoms: _359  and  _360
REMARK  154  A    between atoms: _360  and  _361
REMARK  155  A    between atoms: _363  and  _365
REMARK  156  A    between atoms: _365  and  _366
REMARK  157  A    between atoms: _365  and  _368
REMARK  158  A    between atoms: _368  and  _369
REMARK  159  A    between atoms: _371  and  _373
REMARK  160  A    between atoms: _373  and  _374
REMARK  161  A    between atoms: _373  and  _376
REMARK  162  A    between atoms: _376  and  _377
REMARK  163  A    between atoms: _377  and  _378
REMARK  164  A    between atoms: _378  and  _379
REMARK  165  A    between atoms: _379  and  _380
REMARK  166  A    between atoms: _384  and  _386
REMARK  167  A    between atoms: _386  and  _387
REMARK  168  A    between atoms: _386  and  _389
REMARK  169  A    between atoms: _389  and  _390
REMARK  170  A    between atoms: _390  and  _391
REMARK  171  A    between atoms: _391  and  _392
REMARK  172  A    between atoms: _401  and  _403
REMARK  173  A    between atoms: _403  and  _404
REMARK  174  A    between atoms: _403  and  _406
REMARK  175  A    between atoms: _406  and  _407
REMARK  176  A    between atoms: _412  and  _413
REMARK  177  A    between atoms: _415  and  _417
REMARK  178  A    between atoms: _417  and  _418
REMARK  179  A    between atoms: _417  and  _420
REMARK  180  A    between atoms: _420  and  _421
REMARK  181  A    between atoms: _426  and  _427
REMARK  182  A    between atoms: _429  and  _431
REMARK  183  A    between atoms: _431  and  _432
REMARK  184  A    between atoms: _431  and  _434
REMARK  185  A    between atoms: _434  and  _435
REMARK  186  A    between atoms: _440  and  _441
REMARK  187  A    between atoms: _443  and  _445
REMARK  188  A    between atoms: _445  and  _446
REMARK  189  A    between atoms: _445  and  _448
REMARK  190  A    between atoms: _448  and  _449
REMARK  191  A    between atoms: _452  and  _454
REMARK  192  A    between atoms: _454  and  _455
REMARK  193  A    between atoms: _454  and  _457
REMARK  194  A    between atoms: _460  and  _462
REMARK  195  A    between atoms: _462  and  _463
REMARK  196  A    between atoms: _462  and  _465
REMARK  197  A    between atoms: _465  and  _466
REMARK  198  A    between atoms: _469  and  _471
REMARK  199  A    between atoms: _471  and  _472
REMARK  200  A    between atoms: _471  and  _474
REMARK  201  A    between atoms: _474  and  _475
REMARK  202  A    between atoms: _477  and  _479
REMARK  203  A    between atoms: _479  and  _480
REMARK  204  A    between atoms: _482  and  _484
REMARK  205  A    between atoms: _484  and  _485
REMARK  206  A    between atoms: _484  and  _487
REMARK  207  A    between atoms: _487  and  _488
REMARK  208  A    between atoms: _490  and  _492
REMARK  209  A    between atoms: _492  and  _493
REMARK  210  A    between atoms: _492  and  _495
REMARK  211  A    between atoms: _495  and  _496
REMARK  212  A    between atoms: _499  and  _501
REMARK  213  A    between atoms: _501  and  _502
REMARK  214  A    between atoms: _501  and  _504
REMARK  215  A    between atoms: _504  and  _505
REMARK  216  A    between atoms: _511  and  _513
REMARK  217  A    between atoms: _513  and  _514
REMARK  218  A    between atoms: _513  and  _516
REMARK  219  A    between atoms: _516  and  _517
REMARK  220  A    between atoms: _520  and  _522
REMARK  221  A    between atoms: _522  and  _523
REMARK  222  A    between atoms: _522  and  _525
REMARK  223  A    between atoms: _525  and  _526
REMARK  224  A    between atoms: _531  and  _533
REMARK  225  A    between atoms: _533  and  _534
REMARK  226  A    between atoms: _533  and  _536
REMARK  227  A    between atoms: _536  and  _537
REMARK  228  A    between atoms: _542  and  _543
REMARK  229  A    between atoms: _545  and  _547
REMARK  230  A    between atoms: _547  and  _548
REMARK  231  A    between atoms: _547  and  _550
REMARK  232  A    between atoms: _550  and  _551
REMARK  233  A    between atoms: _551  and  _552
REMARK  234  A    between atoms: _552  and  _553
REMARK  235  A    between atoms: _553  and  _554
REMARK  236  A    between atoms: _558  and  _560
REMARK  237  A    between atoms: _560  and  _561
REMARK  238  A    between atoms: _560  and  _563
REMARK  239  A    between atoms: _563  and  _564
REMARK  240  A    between atoms: _564  and  _565
REMARK  241  A    between atoms: _568  and  _570
REMARK  242  A    between atoms: _570  and  _571
REMARK  243  A    between atoms: _570  and  _573
REMARK  244  A    between atoms: _573  and  _574
REMARK  245  A    between atoms: _574  and  _575
REMARK  246  A    between atoms: _575  and  _576
REMARK  247  A    between atoms: _576  and  _577
REMARK  248  A    between atoms: _581  and  _583
REMARK  249  A    between atoms: _583  and  _584
REMARK  250  A    between atoms: _583  and  _586
REMARK  251  A    between atoms: _589  and  _591
REMARK  252  A    between atoms: _591  and  _592
REMARK  253  A    between atoms: _591  and  _594
REMARK  254  A    between atoms: _594  and  _595
REMARK  255  A    between atoms: _600  and  _602
REMARK  256  A    between atoms: _602  and  _603
REMARK  257  A    between atoms: _602  and  _605
REMARK  258  A    between atoms: _605  and  _606
REMARK  259  A    between atoms: _606  and  _607
REMARK  260  A    between atoms: _607  and  _608
REMARK  261  A    between atoms: _608  and  _609
REMARK  262  A    between atoms: _614  and  _615
REMARK  263  A    between atoms: _620  and  _622
REMARK  264  A    between atoms: _622  and  _623
REMARK  265  A    between atoms: _622  and  _625
REMARK  266  A    between atoms: _625  and  _626
REMARK  267  A    between atoms: _629  and  _631
REMARK  268  A    between atoms: _631  and  _632
REMARK  269  A    between atoms: _634  and  _636
REMARK  270  A    between atoms: _636  and  _637
REMARK  271  A    between atoms: _636  and  _639
REMARK  272  A    between atoms: _639  and  _640
REMARK                            x       y       z     vdW  Elec       q    Type
REMARK                         _______ _______ _______ _____ _____    ______ ____
ROOT
ATOM      1  O   HOH     1       0.384  88.504  48.595  0.00  0.00    +0.000 OA
ENDROOT
TORSDOF 0
REMARK  Name = ../refined-set-2016/4zl4/4zl4_pocket.pdb
REMARK  272 active torsions:
REMARK  status: ('A' for Active; 'I' for Inactive)
REMARK    1  A    between atoms: _1  and  _3
REMARK    2  A    between atoms: _3  and  _4
REMARK    3  A    between atoms: _3  and  _6
REMARK    4  A    between atoms: _6  and  _7
REMARK    5  A    between atoms: _10  and  _12
REMARK    6  A    between atoms: _12  and  _13
REMARK    7  A    between atoms: _12  and  _15
REMARK    8  A    between atoms: _15  and  _16
REMARK    9  A    between atoms: _19  and  _21
REMARK   10  A    between atoms: _21  and  _22
REMARK   11  A    between atoms: _21  and  _24
REMARK   12  A    between atoms: _24  and  _25
REMARK   13  A    between atoms: _28  and  _30
REMARK   14  A    between atoms: _30  and  _31
REMARK   15  A    between atoms: _30  and  _33
REMARK   16  A    between atoms: _33  and  _34
REMARK   17  A    between atoms: _34  and  _35
REMARK   18  A    between atoms: _38  and  _40
REMARK   19  A    between atoms: _40  and  _41
REMARK   20  A    between atoms: _40  and  _43
REMARK   21  A    between atoms: _43  and  _44
REMARK   22  A    between atoms: _49  and  _50
REMARK   23  A    between atoms: _52  and  _54
REMARK   24  A    between atoms: _54  and  _55
REMARK   25  A    between atoms: _58  and  _60
REMARK   26  A    between atoms: _60  and  _61
REMARK   27  A    between atoms: _60  and  _63
REMARK   28  A    between atoms: _63  and  _64
REMARK   29  A    between atoms: _69  and  _70
REMARK   30  A    between atoms: _72  and  _74
REMARK   31  A    between atoms: _74  and  _75
REMARK   32  A    between atoms: _74  and  _77
REMARK   33  A    between atoms: _77  and  _78
REMARK   34  A    between atoms: _83  and  _84
REMARK   35  A    between atoms: _86  and  _88
REMARK   36  A    between atoms: _88  and  _89
REMARK   37  A    between atoms: _88  and  _91
REMARK   38  A    between atoms: _91  and  _92
REMARK   39  A    between atoms: _95  and  _97
REMARK   40  A    between atoms: _97  and  _98
REMARK   41  A    between atoms: _97  and  _100
REMARK   42  A    between atoms: _100  and  _101
REMARK   43  A    between atoms: _104  and  _106
REMARK   44  A    between atoms: _106  and  _107
REMARK   45  A    between atoms: _106  and  _109
REMARK   46  A    between atoms: _109  and  _110
REMARK   47  A    between atoms: _113  and  _115
REMARK   48  A    between atoms: _115  and  _116
REMARK   49  A    between atoms: _115  and  _118
REMARK   50  A    between atoms: _118  and  _119
REMARK   51  A    between atoms: _122  and  _124
REMARK   52  A    between atoms: _124  and  _125
REMARK   53  A    between atoms: _127  and  _129
REMARK   54  A    between atoms: _129  and  _130
REMARK   55  A    between atoms: _129  and  _132
REMARK   56  A    between atoms: _132  and  _133
REMARK   57  A    between atoms: _135  and  _137
REMARK   58  A    between atoms: _137  and  _138
REMARK   59  A    between atoms: _137  and  _140
REMARK   60  A    between atoms: _140  and  _141
REMARK   61  A    between atoms: _143  and  _145
REMARK   62  A    between atoms: _145  and  _146
REMARK   63  A    between atoms: _145  and  _148
REMARK   64  A    between atoms: _148  and  _149
REMARK   65  A    between atoms: _151  and  _153
REMARK   66  A    between atoms: _153  and  _154
REMARK   67  A    between atoms: _153  and  _156
REMARK   68  A    between atoms: _156  and  _157
REMARK   69  A    between atoms: _162  and  _164
REMARK   70  A    between atoms: _164  and  _165
REMARK   71  A    between atoms: _164  and  _167
REMARK   72  A    between atoms: _167  and  _168
REMARK   73  A    between atoms: _168  and  _169
REMARK   74  A    between atoms: _174  and  _176
REMARK   75  A    between atoms: _176  and  _177
REMARK   76  A    between atoms: _176  and  _179
REMARK   77  A    between atoms: _179  and  _180
REMARK   78  A    between atoms: _182  and  _184
REMARK   79  A    between atoms: _184  and  _185
REMARK   80  A    between atoms: _184  and  _187
REMARK   81  A    between atoms: _187  and  _188
REMARK   82  A    between atoms: _193  and  _194
REMARK   83  A    between atoms: _196  and  _198
REMARK   84  A    between atoms: _198  and  _199
REMARK   85  A    between atoms: _198  and  _201
REMARK   86  A    between atoms: _203  and  _205
REMARK   87  A    between atoms: _205  and  _206
REMARK   88  A    between atoms: _205  and  _208
REMARK   89  A    between atoms: _208  and  _209
REMARK   90  A    between atoms: _209  and  _210
REMARK   91  A    between atoms: _213  and  _215
REMARK   92  A    between atoms: _215  and  _216
REMARK   93  A    between atoms: _218  and  _220
REMARK   94  A    between atoms: _220  and  _221
REMARK   95  A    between atoms: _220  and  _223
REMARK   96  A    between atoms: _223  and  _224
REMARK   97  A    between atoms: _226  and  _228
REMARK   98  A    between atoms: _228  and  _229
REMARK   99  A    between atoms: _228  and  _231
REMARK  100  A    between atoms: _231  and  _232
REMARK  101  A    between atoms: _235  and  _237
REMARK  102  A    between atoms: _237  and  _238
REMARK  103  A    between atoms: _237  and  _240
REMARK  104  A    between atoms: _240  and  _241
REMARK  105  A    between atoms: _241  and  _242
REMARK  106  A    between atoms: _245  and  _247
REMARK  107  A    between atoms: _247  and  _248
REMARK  108  A    between atoms: _247  and  _250
REMARK  109  A    between atoms: _250  and  _251
REMARK  110  A    between atoms: _253  and  _255
REMARK  111  A    between atoms: _255  and  _256
REMARK  112  A    between atoms: _255  and  _258
REMARK  113  A    between atoms: _258  and  _259
REMARK  114  A    between atoms: _262  and  _264
REMARK  115  A    between atoms: _264  and  _265
REMARK  116  A    between atoms: _264  and  _267
REMARK  117  A    between atoms: _267  and  _268
REMARK  118  A    between atoms: _274  and  _276
REMARK  119  A    between atoms: _276  and  _277
REMARK  120  A    between atoms: _276  and  _279
REMARK  121  A    between atoms: _279  and  _280
REMARK  122  A    between atoms: _283  and  _285
REMARK  123  A    between atoms: _285  and  _286
REMARK  124  A    between atoms: _285  and  _288
REMARK  125  A    between atoms: _288  and  _289
REMARK  126  A    between atoms: _294  and  _295
REMARK  127  A    between atoms: _297  and  _299
REMARK  128  A    between atoms: _299  and  _300
REMARK  129  A    between atoms: _299  and  _302
REMARK  130  A    between atoms: _302  and  _303
REMARK  131  A    between atoms: _303  and  _304
REMARK  132  A    between atoms: _309  and  _311
REMARK  133  A    between atoms: _311  and  _312
REMARK  134  A    between atoms: _311  and  _314
REMARK  135  A    between atoms: _314  and  _315
REMARK  136  A    between atoms: _315  and  _316
REMARK  137  A    between atoms: _321  and  _323
REMARK  138  A    between atoms: _323  and  _324
REMARK  139  A    between atoms: _327  and  _329
REMARK  140  A    between atoms: _329  and  _330
REMARK  141  A    between atoms: _332  and  _334
REMARK  142  A    between atoms: _334  and  _335
REMARK  143  A    between atoms: _334  and  _337
REMARK  144  A    between atoms: _340  and  _342
REMARK  145  A    between atoms: _342  and  _343
REMARK  146  A    between atoms: _342  and  _345
REMARK  147  A    between atoms: _345  and  _346
REMARK  148  A    between atoms: _349  and  _351
REMARK  149  A    between atoms: _351  and  _352
REMARK  150  A    between atoms: _354  and  _356
REMARK  151  A    between atoms: _356  and  _357
REMARK  152  A    between atoms: _356  and  _359
REMARK  153  A    between atoms: _359  and  _360
REMARK  154  A    between atoms: _360  and  _361
REMARK  155  A    between atoms: _363  and  _365
REMARK  156  A    between atoms: _365  and  _366
REMARK  157  A    between atoms: _365  and  _368
REMARK  158  A    between atoms: _368  and  _369
REMARK  159  A    between atoms: _371  and  _373
REMARK  160  A    between atoms: _373  and  _374
REMARK  161  A    between atoms: _373  and  _376
REMARK  162  A    between atoms: _376  and  _377
REMARK  163  A    between atoms: _377  and  _378
REMARK  164  A    between atoms: _378  and  _379
REMARK  165  A    between atoms: _379  and  _380
REMARK  166  A    between atoms: _384  and  _386
REMARK  167  A    between atoms: _386  and  _387
REMARK  168  A    between atoms: _386  and  _389
REMARK  169  A    between atoms: _389  and  _390
REMARK  170  A    between atoms: _390  and  _391
REMARK  171  A    between atoms: _391  and  _392
REMARK  172  A    between atoms: _401  and  _403
REMARK  173  A    between atoms: _403  and  _404
REMARK  174  A    between atoms: _403  and  _406
REMARK  175  A    between atoms: _406  and  _407
REMARK  176  A    between atoms: _412  and  _413
REMARK  177  A    between atoms: _415  and  _417
REMARK  178  A    between atoms: _417  and  _418
REMARK  179  A    between atoms: _417  and  _420
REMARK  180  A    between atoms: _420  and  _421
REMARK  181  A    between atoms: _426  and  _427
REMARK  182  A    between atoms: _429  and  _431
REMARK  183  A    between atoms: _431  and  _432
REMARK  184  A    between atoms: _431  and  _434
REMARK  185  A    between atoms: _434  and  _435
REMARK  186  A    between atoms: _440  and  _441
REMARK  187  A    between atoms: _443  and  _445
REMARK  188  A    between atoms: _445  and  _446
REMARK  189  A    between atoms: _445  and  _448
REMARK  190  A    between atoms: _448  and  _449
REMARK  191  A    between atoms: _452  and  _454
REMARK  192  A    between atoms: _454  and  _455
REMARK  193  A    between atoms: _454  and  _457
REMARK  194  A    between atoms: _460  and  _462
REMARK  195  A    between atoms: _462  and  _463
REMARK  196  A    between atoms: _462  and  _465
REMARK  197  A    between atoms: _465  and  _466
REMARK  198  A    between atoms: _469  and  _471
REMARK  199  A    between atoms: _471  and  _472
REMARK  200  A    between atoms: _471  and  _474
REMARK  201  A    between atoms: _474  and  _475
REMARK  202  A    between atoms: _477  and  _479
REMARK  203  A    between atoms: _479  and  _480
REMARK  204  A    between atoms: _482  and  _484
REMARK  205  A    between atoms: _484  and  _485
REMARK  206  A    between atoms: _484  and  _487
REMARK  207  A    between atoms: _487  and  _488
REMARK  208  A    between atoms: _490  and  _492
REMARK  209  A    between atoms: _492  and  _493
REMARK  210  A    between atoms: _492  and  _495
REMARK  211  A    between atoms: _495  and  _496
REMARK  212  A    between atoms: _499  and  _501
REMARK  213  A    between atoms: _501  and  _502
REMARK  214  A    between atoms: _501  and  _504
REMARK  215  A    between atoms: _504  and  _505
REMARK  216  A    between atoms: _511  and  _513
REMARK  217  A    between atoms: _513  and  _514
REMARK  218  A    between atoms: _513  and  _516
REMARK  219  A    between atoms: _516  and  _517
REMARK  220  A    between atoms: _520  and  _522
REMARK  221  A    between atoms: _522  and  _523
REMARK  222  A    between atoms: _522  and  _525
REMARK  223  A    between atoms: _525  and  _526
REMARK  224  A    between atoms: _531  and  _533
REMARK  225  A    between atoms: _533  and  _534
REMARK  226  A    between atoms: _533  and  _536
REMARK  227  A    between atoms: _536  and  _537
REMARK  228  A    between atoms: _542  and  _543
REMARK  229  A    between atoms: _545  and  _547
REMARK  230  A    between atoms: _547  and  _548
REMARK  231  A    between atoms: _547  and  _550
REMARK  232  A    between atoms: _550  and  _551
REMARK  233  A    between atoms: _551  and  _552
REMARK  234  A    between atoms: _552  and  _553
REMARK  235  A    between atoms: _553  and  _554
REMARK  236  A    between atoms: _558  and  _560
REMARK  237  A    between atoms: _560  and  _561
REMARK  238  A    between atoms: _560  and  _563
REMARK  239  A    between atoms: _563  and  _564
REMARK  240  A    between atoms: _564  and  _565
REMARK  241  A    between atoms: _568  and  _570
REMARK  242  A    between atoms: _570  and  _571
REMARK  243  A    between atoms: _570  and  _573
REMARK  244  A    between atoms: _573  and  _574
REMARK  245  A    between atoms: _574  and  _575
REMARK  246  A    between atoms: _575  and  _576
REMARK  247  A    between atoms: _576  and  _577
REMARK  248  A    between atoms: _581  and  _583
REMARK  249  A    between atoms: _583  and  _584
REMARK  250  A    between atoms: _583  and  _586
REMARK  251  A    between atoms: _589  and  _591
REMARK  252  A    between atoms: _591  and  _592
REMARK  253  A    between atoms: _591  and  _594
REMARK  254  A    between atoms: _594  and  _595
REMARK  255  A    between atoms: _600  and  _602
REMARK  256  A    between atoms: _602  and  _603
REMARK  257  A    between atoms: _602  and  _605
REMARK  258  A    between atoms: _605  and  _606
REMARK  259  A    between atoms: _606  and  _607
REMARK  260  A    between atoms: _607  and  _608
REMARK  261  A    between atoms: _608  and  _609
REMARK  262  A    between atoms: _614  and  _615
REMARK  263  A    between atoms: _620  and  _622
REMARK  264  A    between atoms: _622  and  _623
REMARK  265  A    between atoms: _622  and  _625
REMARK  266  A    between atoms: _625  and  _626
REMARK  267  A    between atoms: _629  and  _631
REMARK  268  A    between atoms: _631  and  _632
REMARK  269  A    between atoms: _634  and  _636
REMARK  270  A    between atoms: _636  and  _637
REMARK  271  A    between atoms: _636  and  _639
REMARK  272  A    between atoms: _639  and  _640
REMARK                            x       y       z     vdW  Elec       q    Type
REMARK                         _______ _______ _______ _____ _____    ______ ____
ROOT
ATOM      1  O   HOH     1      -6.397  91.095  35.570  0.00  0.00    +0.000 OA
ENDROOT
TORSDOF 0
REMARK  Name = ../refined-set-2016/4zl4/4zl4_pocket.pdb
REMARK  272 active torsions:
REMARK  status: ('A' for Active; 'I' for Inactive)
REMARK    1  A    between atoms: _1  and  _3
REMARK    2  A    between atoms: _3  and  _4
REMARK    3  A    between atoms: _3  and  _6
REMARK    4  A    between atoms: _6  and  _7
REMARK    5  A    between atoms: _10  and  _12
REMARK    6  A    between atoms: _12  and  _13
REMARK    7  A    between atoms: _12  and  _15
REMARK    8  A    between atoms: _15  and  _16
REMARK    9  A    between atoms: _19  and  _21
REMARK   10  A    between atoms: _21  and  _22
REMARK   11  A    between atoms: _21  and  _24
REMARK   12  A    between atoms: _24  and  _25
REMARK   13  A    between atoms: _28  and  _30
REMARK   14  A    between atoms: _30  and  _31
REMARK   15  A    between atoms: _30  and  _33
REMARK   16  A    between atoms: _33  and  _34
REMARK   17  A    between atoms: _34  and  _35
REMARK   18  A    between atoms: _38  and  _40
REMARK   19  A    between atoms: _40  and  _41
REMARK   20  A    between atoms: _40  and  _43
REMARK   21  A    between atoms: _43  and  _44
REMARK   22  A    between atoms: _49  and  _50
REMARK   23  A    between atoms: _52  and  _54
REMARK   24  A    between atoms: _54  and  _55
REMARK   25  A    between atoms: _58  and  _60
REMARK   26  A    between atoms: _60  and  _61
REMARK   27  A    between atoms: _60  and  _63
REMARK   28  A    between atoms: _63  and  _64
REMARK   29  A    between atoms: _69  and  _70
REMARK   30  A    between atoms: _72  and  _74
REMARK   31  A    between atoms: _74  and  _75
REMARK   32  A    between atoms: _74  and  _77
REMARK   33  A    between atoms: _77  and  _78
REMARK   34  A    between atoms: _83  and  _84
REMARK   35  A    between atoms: _86  and  _88
REMARK   36  A    between atoms: _88  and  _89
REMARK   37  A    between atoms: _88  and  _91
REMARK   38  A    between atoms: _91  and  _92
REMARK   39  A    between atoms: _95  and  _97
REMARK   40  A    between atoms: _97  and  _98
REMARK   41  A    between atoms: _97  and  _100
REMARK   42  A    between atoms: _100  and  _101
REMARK   43  A    between atoms: _104  and  _106
REMARK   44  A    between atoms: _106  and  _107
REMARK   45  A    between atoms: _106  and  _109
REMARK   46  A    between atoms: _109  and  _110
REMARK   47  A    between atoms: _113  and  _115
REMARK   48  A    between atoms: _115  and  _116
REMARK   49  A    between atoms: _115  and  _118
REMARK   50  A    between atoms: _118  and  _119
REMARK   51  A    between atoms: _122  and  _124
REMARK   52  A    between atoms: _124  and  _125
REMARK   53  A    between atoms: _127  and  _129
REMARK   54  A    between atoms: _129  and  _130
REMARK   55  A    between atoms: _129  and  _132
REMARK   56  A    between atoms: _132  and  _133
REMARK   57  A    between atoms: _135  and  _137
REMARK   58  A    between atoms: _137  and  _138
REMARK   59  A    between atoms: _137  and  _140
REMARK   60  A    between atoms: _140  and  _141
REMARK   61  A    between atoms: _143  and  _145
REMARK   62  A    between atoms: _145  and  _146
REMARK   63  A    between atoms: _145  and  _148
REMARK   64  A    between atoms: _148  and  _149
REMARK   65  A    between atoms: _151  and  _153
REMARK   66  A    between atoms: _153  and  _154
REMARK   67  A    between atoms: _153  and  _156
REMARK   68  A    between atoms: _156  and  _157
REMARK   69  A    between atoms: _162  and  _164
REMARK   70  A    between atoms: _164  and  _165
REMARK   71  A    between atoms: _164  and  _167
REMARK   72  A    between atoms: _167  and  _168
REMARK   73  A    between atoms: _168  and  _169
REMARK   74  A    between atoms: _174  and  _176
REMARK   75  A    between atoms: _176  and  _177
REMARK   76  A    between atoms: _176  and  _179
REMARK   77  A    between atoms: _179  and  _180
REMARK   78  A    between atoms: _182  and  _184
REMARK   79  A    between atoms: _184  and  _185
REMARK   80  A    between atoms: _184  and  _187
REMARK   81  A    between atoms: _187  and  _188
REMARK   82  A    between atoms: _193  and  _194
REMARK   83  A    between atoms: _196  and  _198
REMARK   84  A    between atoms: _198  and  _199
REMARK   85  A    between atoms: _198  and  _201
REMARK   86  A    between atoms: _203  and  _205
REMARK   87  A    between atoms: _205  and  _206
REMARK   88  A    between atoms: _205  and  _208
REMARK   89  A    between atoms: _208  and  _209
REMARK   90  A    between atoms: _209  and  _210
REMARK   91  A    between atoms: _213  and  _215
REMARK   92  A    between atoms: _215  and  _216
REMARK   93  A    between atoms: _218  and  _220
REMARK   94  A    between atoms: _220  and  _221
REMARK   95  A    between atoms: _220  and  _223
REMARK   96  A    between atoms: _223  and  _224
REMARK   97  A    between atoms: _226  and  _228
REMARK   98  A    between atoms: _228  and  _229
REMARK   99  A    between atoms: _228  and  _231
REMARK  100  A    between atoms: _231  and  _232
REMARK  101  A    between atoms: _235  and  _237
REMARK  102  A    between atoms: _237  and  _238
REMARK  103  A    between atoms: _237  and  _240
REMARK  104  A    between atoms: _240  and  _241
REMARK  105  A    between atoms: _241  and  _242
REMARK  106  A    between atoms: _245  and  _247
REMARK  107  A    between atoms: _247  and  _248
REMARK  108  A    between atoms: _247  and  _250
REMARK  109  A    between atoms: _250  and  _251
REMARK  110  A    between atoms: _253  and  _255
REMARK  111  A    between atoms: _255  and  _256
REMARK  112  A    between atoms: _255  and  _258
REMARK  113  A    between atoms: _258  and  _259
REMARK  114  A    between atoms: _262  and  _264
REMARK  115  A    between atoms: _264  and  _265
REMARK  116  A    between atoms: _264  and  _267
REMARK  117  A    between atoms: _267  and  _268
REMARK  118  A    between atoms: _274  and  _276
REMARK  119  A    between atoms: _276  and  _277
REMARK  120  A    between atoms: _276  and  _279
REMARK  121  A    between atoms: _279  and  _280
REMARK  122  A    between atoms: _283  and  _285
REMARK  123  A    between atoms: _285  and  _286
REMARK  124  A    between atoms: _285  and  _288
REMARK  125  A    between atoms: _288  and  _289
REMARK  126  A    between atoms: _294  and  _295
REMARK  127  A    between atoms: _297  and  _299
REMARK  128  A    between atoms: _299  and  _300
REMARK  129  A    between atoms: _299  and  _302
REMARK  130  A    between atoms: _302  and  _303
REMARK  131  A    between atoms: _303  and  _304
REMARK  132  A    between atoms: _309  and  _311
REMARK  133  A    between atoms: _311  and  _312
REMARK  134  A    between atoms: _311  and  _314
REMARK  135  A    between atoms: _314  and  _315
REMARK  136  A    between atoms: _315  and  _316
REMARK  137  A    between atoms: _321  and  _323
REMARK  138  A    between atoms: _323  and  _324
REMARK  139  A    between atoms: _327  and  _329
REMARK  140  A    between atoms: _329  and  _330
REMARK  141  A    between atoms: _332  and  _334
REMARK  142  A    between atoms: _334  and  _335
REMARK  143  A    between atoms: _334  and  _337
REMARK  144  A    between atoms: _340  and  _342
REMARK  145  A    between atoms: _342  and  _343
REMARK  146  A    between atoms: _342  and  _345
REMARK  147  A    between atoms: _345  and  _346
REMARK  148  A    between atoms: _349  and  _351
REMARK  149  A    between atoms: _351  and  _352
REMARK  150  A    between atoms: _354  and  _356
REMARK  151  A    between atoms: _356  and  _357
REMARK  152  A    between atoms: _356  and  _359
REMARK  153  A    between atoms: _359  and  _360
REMARK  154  A    between atoms: _360  and  _361
REMARK  155  A    between atoms: _363  and  _365
REMARK  156  A    between atoms: _365  and  _366
REMARK  157  A    between atoms: _365  and  _368
REMARK  158  A    between atoms: _368  and  _369
REMARK  159  A    between atoms: _371  and  _373
REMARK  160  A    between atoms: _373  and  _374
REMARK  161  A    between atoms: _373  and  _376
REMARK  162  A    between atoms: _376  and  _377
REMARK  163  A    between atoms: _377  and  _378
REMARK  164  A    between atoms: _378  and  _379
REMARK  165  A    between atoms: _379  and  _380
REMARK  166  A    between atoms: _384  and  _386
REMARK  167  A    between atoms: _386  and  _387
REMARK  168  A    between atoms: _386  and  _389
REMARK  169  A    between atoms: _389  and  _390
REMARK  170  A    between atoms: _390  and  _391
REMARK  171  A    between atoms: _391  and  _392
REMARK  172  A    between atoms: _401  and  _403
REMARK  173  A    between atoms: _403  and  _404
REMARK  174  A    between atoms: _403  and  _406
REMARK  175  A    between atoms: _406  and  _407
REMARK  176  A    between atoms: _412  and  _413
REMARK  177  A    between atoms: _415  and  _417
REMARK  178  A    between atoms: _417  and  _418
REMARK  179  A    between atoms: _417  and  _420
REMARK  180  A    between atoms: _420  and  _421
REMARK  181  A    between atoms: _426  and  _427
REMARK  182  A    between atoms: _429  and  _431
REMARK  183  A    between atoms: _431  and  _432
REMARK  184  A    between atoms: _431  and  _434
REMARK  185  A    between atoms: _434  and  _435
REMARK  186  A    between atoms: _440  and  _441
REMARK  187  A    between atoms: _443  and  _445
REMARK  188  A    between atoms: _445  and  _446
REMARK  189  A    between atoms: _445  and  _448
REMARK  190  A    between atoms: _448  and  _449
REMARK  191  A    between atoms: _452  and  _454
REMARK  192  A    between atoms: _454  and  _455
REMARK  193  A    between atoms: _454  and  _457
REMARK  194  A    between atoms: _460  and  _462
REMARK  195  A    between atoms: _462  and  _463
REMARK  196  A    between atoms: _462  and  _465
REMARK  197  A    between atoms: _465  and  _466
REMARK  198  A    between atoms: _469  and  _471
REMARK  199  A    between atoms: _471  and  _472
REMARK  200  A    between atoms: _471  and  _474
REMARK  201  A    between atoms: _474  and  _475
REMARK  202  A    between atoms: _477  and  _479
REMARK  203  A    between atoms: _479  and  _480
REMARK  204  A    between atoms: _482  and  _484
REMARK  205  A    between atoms: _484  and  _485
REMARK  206  A    between atoms: _484  and  _487
REMARK  207  A    between atoms: _487  and  _488
REMARK  208  A    between atoms: _490  and  _492
REMARK  209  A    between atoms: _492  and  _493
REMARK  210  A    between atoms: _492  and  _495
REMARK  211  A    between atoms: _495  and  _496
REMARK  212  A    between atoms: _499  and  _501
REMARK  213  A    between atoms: _501  and  _502
REMARK  214  A    between atoms: _501  and  _504
REMARK  215  A    between atoms: _504  and  _505
REMARK  216  A    between atoms: _511  and  _513
REMARK  217  A    between atoms: _513  and  _514
REMARK  218  A    between atoms: _513  and  _516
REMARK  219  A    between atoms: _516  and  _517
REMARK  220  A    between atoms: _520  and  _522
REMARK  221  A    between atoms: _522  and  _523
REMARK  222  A    between atoms: _522  and  _525
REMARK  223  A    between atoms: _525  and  _526
REMARK  224  A    between atoms: _531  and  _533
REMARK  225  A    between atoms: _533  and  _534
REMARK  226  A    between atoms: _533  and  _536
REMARK  227  A    between atoms: _536  and  _537
REMARK  228  A    between atoms: _542  and  _543
REMARK  229  A    between atoms: _545  and  _547
REMARK  230  A    between atoms: _547  and  _548
REMARK  231  A    between atoms: _547  and  _550
REMARK  232  A    between atoms: _550  and  _551
REMARK  233  A    between atoms: _551  and  _552
REMARK  234  A    between atoms: _552  and  _553
REMARK  235  A    between atoms: _553  and  _554
REMARK  236  A    between atoms: _558  and  _560
REMARK  237  A    between atoms: _560  and  _561
REMARK  238  A    between atoms: _560  and  _563
REMARK  239  A    between atoms: _563  and  _564
REMARK  240  A    between atoms: _564  and  _565
REMARK  241  A    between atoms: _568  and  _570
REMARK  242  A    between atoms: _570  and  _571
REMARK  243  A    between atoms: _570  and  _573
REMARK  244  A    between atoms: _573  and  _574
REMARK  245  A    between atoms: _574  and  _575
REMARK  246  A    between atoms: _575  and  _576
REMARK  247  A    between atoms: _576  and  _577
REMARK  248  A    between atoms: _581  and  _583
REMARK  249  A    between atoms: _583  and  _584
REMARK  250  A    between atoms: _583  and  _586
REMARK  251  A    between atoms: _589  and  _591
REMARK  252  A    between atoms: _591  and  _592
REMARK  253  A    between atoms: _591  and  _594
REMARK  254  A    between atoms: _594  and  _595
REMARK  255  A    between atoms: _600  and  _602
REMARK  256  A    between atoms: _602  and  _603
REMARK  257  A    between atoms: _602  and  _605
REMARK  258  A    between atoms: _605  and  _606
REMARK  259  A    between atoms: _606  and  _607
REMARK  260  A    between atoms: _607  and  _608
REMARK  261  A    between atoms: _608  and  _609
REMARK  262  A    between atoms: _614  and  _615
REMARK  263  A    between atoms: _620  and  _622
REMARK  264  A    between atoms: _622  and  _623
REMARK  265  A    between atoms: _622  and  _625
REMARK  266  A    between atoms: _625  and  _626
REMARK  267  A    between atoms: _629  and  _631
REMARK  268  A    between atoms: _631  and  _632
REMARK  269  A    between atoms: _634  and  _636
REMARK  270  A    between atoms: _636  and  _637
REMARK  271  A    between atoms: _636  and  _639
REMARK  272  A    between atoms: _639  and  _640
REMARK                            x       y       z     vdW  Elec       q    Type
REMARK                         _______ _______ _______ _____ _____    ______ ____
ROOT
ATOM      1  O   HOH     1      -4.958  94.948  56.178  0.00  0.00    +0.000 OA
ENDROOT
TORSDOF 0
REMARK  Name = ../refined-set-2016/4zl4/4zl4_pocket.pdb
REMARK  272 active torsions:
REMARK  status: ('A' for Active; 'I' for Inactive)
REMARK    1  A    between atoms: _1  and  _3
REMARK    2  A    between atoms: _3  and  _4
REMARK    3  A    between atoms: _3  and  _6
REMARK    4  A    between atoms: _6  and  _7
REMARK    5  A    between atoms: _10  and  _12
REMARK    6  A    between atoms: _12  and  _13
REMARK    7  A    between atoms: _12  and  _15
REMARK    8  A    between atoms: _15  and  _16
REMARK    9  A    between atoms: _19  and  _21
REMARK   10  A    between atoms: _21  and  _22
REMARK   11  A    between atoms: _21  and  _24
REMARK   12  A    between atoms: _24  and  _25
REMARK   13  A    between atoms: _28  and  _30
REMARK   14  A    between atoms: _30  and  _31
REMARK   15  A    between atoms: _30  and  _33
REMARK   16  A    between atoms: _33  and  _34
REMARK   17  A    between atoms: _34  and  _35
REMARK   18  A    between atoms: _38  and  _40
REMARK   19  A    between atoms: _40  and  _41
REMARK   20  A    between atoms: _40  and  _43
REMARK   21  A    between atoms: _43  and  _44
REMARK   22  A    between atoms: _49  and  _50
REMARK   23  A    between atoms: _52  and  _54
REMARK   24  A    between atoms: _54  and  _55
REMARK   25  A    between atoms: _58  and  _60
REMARK   26  A    between atoms: _60  and  _61
REMARK   27  A    between atoms: _60  and  _63
REMARK   28  A    between atoms: _63  and  _64
REMARK   29  A    between atoms: _69  and  _70
REMARK   30  A    between atoms: _72  and  _74
REMARK   31  A    between atoms: _74  and  _75
REMARK   32  A    between atoms: _74  and  _77
REMARK   33  A    between atoms: _77  and  _78
REMARK   34  A    between atoms: _83  and  _84
REMARK   35  A    between atoms: _86  and  _88
REMARK   36  A    between atoms: _88  and  _89
REMARK   37  A    between atoms: _88  and  _91
REMARK   38  A    between atoms: _91  and  _92
REMARK   39  A    between atoms: _95  and  _97
REMARK   40  A    between atoms: _97  and  _98
REMARK   41  A    between atoms: _97  and  _100
REMARK   42  A    between atoms: _100  and  _101
REMARK   43  A    between atoms: _104  and  _106
REMARK   44  A    between atoms: _106  and  _107
REMARK   45  A    between atoms: _106  and  _109
REMARK   46  A    between atoms: _109  and  _110
REMARK   47  A    between atoms: _113  and  _115
REMARK   48  A    between atoms: _115  and  _116
REMARK   49  A    between atoms: _115  and  _118
REMARK   50  A    between atoms: _118  and  _119
REMARK   51  A    between atoms: _122  and  _124
REMARK   52  A    between atoms: _124  and  _125
REMARK   53  A    between atoms: _127  and  _129
REMARK   54  A    between atoms: _129  and  _130
REMARK   55  A    between atoms: _129  and  _132
REMARK   56  A    between atoms: _132  and  _133
REMARK   57  A    between atoms: _135  and  _137
REMARK   58  A    between atoms: _137  and  _138
REMARK   59  A    between atoms: _137  and  _140
REMARK   60  A    between atoms: _140  and  _141
REMARK   61  A    between atoms: _143  and  _145
REMARK   62  A    between atoms: _145  and  _146
REMARK   63  A    between atoms: _145  and  _148
REMARK   64  A    between atoms: _148  and  _149
REMARK   65  A    between atoms: _151  and  _153
REMARK   66  A    between atoms: _153  and  _154
REMARK   67  A    between atoms: _153  and  _156
REMARK   68  A    between atoms: _156  and  _157
REMARK   69  A    between atoms: _162  and  _164
REMARK   70  A    between atoms: _164  and  _165
REMARK   71  A    between atoms: _164  and  _167
REMARK   72  A    between atoms: _167  and  _168
REMARK   73  A    between atoms: _168  and  _169
REMARK   74  A    between atoms: _174  and  _176
REMARK   75  A    between atoms: _176  and  _177
REMARK   76  A    between atoms: _176  and  _179
REMARK   77  A    between atoms: _179  and  _180
REMARK   78  A    between atoms: _182  and  _184
REMARK   79  A    between atoms: _184  and  _185
REMARK   80  A    between atoms: _184  and  _187
REMARK   81  A    between atoms: _187  and  _188
REMARK   82  A    between atoms: _193  and  _194
REMARK   83  A    between atoms: _196  and  _198
REMARK   84  A    between atoms: _198  and  _199
REMARK   85  A    between atoms: _198  and  _201
REMARK   86  A    between atoms: _203  and  _205
REMARK   87  A    between atoms: _205  and  _206
REMARK   88  A    between atoms: _205  and  _208
REMARK   89  A    between atoms: _208  and  _209
REMARK   90  A    between atoms: _209  and  _210
REMARK   91  A    between atoms: _213  and  _215
REMARK   92  A    between atoms: _215  and  _216
REMARK   93  A    between atoms: _218  and  _220
REMARK   94  A    between atoms: _220  and  _221
REMARK   95  A    between atoms: _220  and  _223
REMARK   96  A    between atoms: _223  and  _224
REMARK   97  A    between atoms: _226  and  _228
REMARK   98  A    between atoms: _228  and  _229
REMARK   99  A    between atoms: _228  and  _231
REMARK  100  A    between atoms: _231  and  _232
REMARK  101  A    between atoms: _235  and  _237
REMARK  102  A    between atoms: _237  and  _238
REMARK  103  A    between atoms: _237  and  _240
REMARK  104  A    between atoms: _240  and  _241
REMARK  105  A    between atoms: _241  and  _242
REMARK  106  A    between atoms: _245  and  _247
REMARK  107  A    between atoms: _247  and  _248
REMARK  108  A    between atoms: _247  and  _250
REMARK  109  A    between atoms: _250  and  _251
REMARK  110  A    between atoms: _253  and  _255
REMARK  111  A    between atoms: _255  and  _256
REMARK  112  A    between atoms: _255  and  _258
REMARK  113  A    between atoms: _258  and  _259
REMARK  114  A    between atoms: _262  and  _264
REMARK  115  A    between atoms: _264  and  _265
REMARK  116  A    between atoms: _264  and  _267
REMARK  117  A    between atoms: _267  and  _268
REMARK  118  A    between atoms: _274  and  _276
REMARK  119  A    between atoms: _276  and  _277
REMARK  120  A    between atoms: _276  and  _279
REMARK  121  A    between atoms: _279  and  _280
REMARK  122  A    between atoms: _283  and  _285
REMARK  123  A    between atoms: _285  and  _286
REMARK  124  A    between atoms: _285  and  _288
REMARK  125  A    between atoms: _288  and  _289
REMARK  126  A    between atoms: _294  and  _295
REMARK  127  A    between atoms: _297  and  _299
REMARK  128  A    between atoms: _299  and  _300
REMARK  129  A    between atoms: _299  and  _302
REMARK  130  A    between atoms: _302  and  _303
REMARK  131  A    between atoms: _303  and  _304
REMARK  132  A    between atoms: _309  and  _311
REMARK  133  A    between atoms: _311  and  _312
REMARK  134  A    between atoms: _311  and  _314
REMARK  135  A    between atoms: _314  and  _315
REMARK  136  A    between atoms: _315  and  _316
REMARK  137  A    between atoms: _321  and  _323
REMARK  138  A    between atoms: _323  and  _324
REMARK  139  A    between atoms: _327  and  _329
REMARK  140  A    between atoms: _329  and  _330
REMARK  141  A    between atoms: _332  and  _334
REMARK  142  A    between atoms: _334  and  _335
REMARK  143  A    between atoms: _334  and  _337
REMARK  144  A    between atoms: _340  and  _342
REMARK  145  A    between atoms: _342  and  _343
REMARK  146  A    between atoms: _342  and  _345
REMARK  147  A    between atoms: _345  and  _346
REMARK  148  A    between atoms: _349  and  _351
REMARK  149  A    between atoms: _351  and  _352
REMARK  150  A    between atoms: _354  and  _356
REMARK  151  A    between atoms: _356  and  _357
REMARK  152  A    between atoms: _356  and  _359
REMARK  153  A    between atoms: _359  and  _360
REMARK  154  A    between atoms: _360  and  _361
REMARK  155  A    between atoms: _363  and  _365
REMARK  156  A    between atoms: _365  and  _366
REMARK  157  A    between atoms: _365  and  _368
REMARK  158  A    between atoms: _368  and  _369
REMARK  159  A    between atoms: _371  and  _373
REMARK  160  A    between atoms: _373  and  _374
REMARK  161  A    between atoms: _373  and  _376
REMARK  162  A    between atoms: _376  and  _377
REMARK  163  A    between atoms: _377  and  _378
REMARK  164  A    between atoms: _378  and  _379
REMARK  165  A    between atoms: _379  and  _380
REMARK  166  A    between atoms: _384  and  _386
REMARK  167  A    between atoms: _386  and  _387
REMARK  168  A    between atoms: _386  and  _389
REMARK  169  A    between atoms: _389  and  _390
REMARK  170  A    between atoms: _390  and  _391
REMARK  171  A    between atoms: _391  and  _392
REMARK  172  A    between atoms: _401  and  _403
REMARK  173  A    between atoms: _403  and  _404
REMARK  174  A    between atoms: _403  and  _406
REMARK  175  A    between atoms: _406  and  _407
REMARK  176  A    between atoms: _412  and  _413
REMARK  177  A    between atoms: _415  and  _417
REMARK  178  A    between atoms: _417  and  _418
REMARK  179  A    between atoms: _417  and  _420
REMARK  180  A    between atoms: _420  and  _421
REMARK  181  A    between atoms: _426  and  _427
REMARK  182  A    between atoms: _429  and  _431
REMARK  183  A    between atoms: _431  and  _432
REMARK  184  A    between atoms: _431  and  _434
REMARK  185  A    between atoms: _434  and  _435
REMARK  186  A    between atoms: _440  and  _441
REMARK  187  A    between atoms: _443  and  _445
REMARK  188  A    between atoms: _445  and  _446
REMARK  189  A    between atoms: _445  and  _448
REMARK  190  A    between atoms: _448  and  _449
REMARK  191  A    between atoms: _452  and  _454
REMARK  192  A    between atoms: _454  and  _455
REMARK  193  A    between atoms: _454  and  _457
REMARK  194  A    between atoms: _460  and  _462
REMARK  195  A    between atoms: _462  and  _463
REMARK  196  A    between atoms: _462  and  _465
REMARK  197  A    between atoms: _465  and  _466
REMARK  198  A    between atoms: _469  and  _471
REMARK  199  A    between atoms: _471  and  _472
REMARK  200  A    between atoms: _471  and  _474
REMARK  201  A    between atoms: _474  and  _475
REMARK  202  A    between atoms: _477  and  _479
REMARK  203  A    between atoms: _479  and  _480
REMARK  204  A    between atoms: _482  and  _484
REMARK  205  A    between atoms: _484  and  _485
REMARK  206  A    between atoms: _484  and  _487
REMARK  207  A    between atoms: _487  and  _488
REMARK  208  A    between atoms: _490  and  _492
REMARK  209  A    between atoms: _492  and  _493
REMARK  210  A    between atoms: _492  and  _495
REMARK  211  A    between atoms: _495  and  _496
REMARK  212  A    between atoms: _499  and  _501
REMARK  213  A    between atoms: _501  and  _502
REMARK  214  A    between atoms: _501  and  _504
REMARK  215  A    between atoms: _504  and  _505
REMARK  216  A    between atoms: _511  and  _513
REMARK  217  A    between atoms: _513  and  _514
REMARK  218  A    between atoms: _513  and  _516
REMARK  219  A    between atoms: _516  and  _517
REMARK  220  A    between atoms: _520  and  _522
REMARK  221  A    between atoms: _522  and  _523
REMARK  222  A    between atoms: _522  and  _525
REMARK  223  A    between atoms: _525  and  _526
REMARK  224  A    between atoms: _531  and  _533
REMARK  225  A    between atoms: _533  and  _534
REMARK  226  A    between atoms: _533  and  _536
REMARK  227  A    between atoms: _536  and  _537
REMARK  228  A    between atoms: _542  and  _543
REMARK  229  A    between atoms: _545  and  _547
REMARK  230  A    between atoms: _547  and  _548
REMARK  231  A    between atoms: _547  and  _550
REMARK  232  A    between atoms: _550  and  _551
REMARK  233  A    between atoms: _551  and  _552
REMARK  234  A    between atoms: _552  and  _553
REMARK  235  A    between atoms: _553  and  _554
REMARK  236  A    between atoms: _558  and  _560
REMARK  237  A    between atoms: _560  and  _561
REMARK  238  A    between atoms: _560  and  _563
REMARK  239  A    between atoms: _563  and  _564
REMARK  240  A    between atoms: _564  and  _565
REMARK  241  A    between atoms: _568  and  _570
REMARK  242  A    between atoms: _570  and  _571
REMARK  243  A    between atoms: _570  and  _573
REMARK  244  A    between atoms: _573  and  _574
REMARK  245  A    between atoms: _574  and  _575
REMARK  246  A    between atoms: _575  and  _576
REMARK  247  A    between atoms: _576  and  _577
REMARK  248  A    between atoms: _581  and  _583
REMARK  249  A    between atoms: _583  and  _584
REMARK  250  A    between atoms: _583  and  _586
REMARK  251  A    between atoms: _589  and  _591
REMARK  252  A    between atoms: _591  and  _592
REMARK  253  A    between atoms: _591  and  _594
REMARK  254  A    between atoms: _594  and  _595
REMARK  255  A    between atoms: _600  and  _602
REMARK  256  A    between atoms: _602  and  _603
REMARK  257  A    between atoms: _602  and  _605
REMARK  258  A    between atoms: _605  and  _606
REMARK  259  A    between atoms: _606  and  _607
REMARK  260  A    between atoms: _607  and  _608
REMARK  261  A    between atoms: _608  and  _609
REMARK  262  A    between atoms: _614  and  _615
REMARK  263  A    between atoms: _620  and  _622
REMARK  264  A    between atoms: _622  and  _623
REMARK  265  A    between atoms: _622  and  _625
REMARK  266  A    between atoms: _625  and  _626
REMARK  267  A    between atoms: _629  and  _631
REMARK  268  A    between atoms: _631  and  _632
REMARK  269  A    between atoms: _634  and  _636
REMARK  270  A    between atoms: _636  and  _637
REMARK  271  A    between atoms: _636  and  _639
REMARK  272  A    between atoms: _639  and  _640
REMARK                            x       y       z     vdW  Elec       q    Type
REMARK                         _______ _______ _______ _____ _____    ______ ____
ROOT
ATOM      1  O   HOH     1      -0.212 102.618  35.287  0.00  0.00    +0.000 OA
ENDROOT
TORSDOF 0
REMARK  Name = ../refined-set-2016/4zl4/4zl4_pocket.pdb
REMARK  272 active torsions:
REMARK  status: ('A' for Active; 'I' for Inactive)
REMARK    1  A    between atoms: _1  and  _3
REMARK    2  A    between atoms: _3  and  _4
REMARK    3  A    between atoms: _3  and  _6
REMARK    4  A    between atoms: _6  and  _7
REMARK    5  A    between atoms: _10  and  _12
REMARK    6  A    between atoms: _12  and  _13
REMARK    7  A    between atoms: _12  and  _15
REMARK    8  A    between atoms: _15  and  _16
REMARK    9  A    between atoms: _19  and  _21
REMARK   10  A    between atoms: _21  and  _22
REMARK   11  A    between atoms: _21  and  _24
REMARK   12  A    between atoms: _24  and  _25
REMARK   13  A    between atoms: _28  and  _30
REMARK   14  A    between atoms: _30  and  _31
REMARK   15  A    between atoms: _30  and  _33
REMARK   16  A    between atoms: _33  and  _34
REMARK   17  A    between atoms: _34  and  _35
REMARK   18  A    between atoms: _38  and  _40
REMARK   19  A    between atoms: _40  and  _41
REMARK   20  A    between atoms: _40  and  _43
REMARK   21  A    between atoms: _43  and  _44
REMARK   22  A    between atoms: _49  and  _50
REMARK   23  A    between atoms: _52  and  _54
REMARK   24  A    between atoms: _54  and  _55
REMARK   25  A    between atoms: _58  and  _60
REMARK   26  A    between atoms: _60  and  _61
REMARK   27  A    between atoms: _60  and  _63
REMARK   28  A    between atoms: _63  and  _64
REMARK   29  A    between atoms: _69  and  _70
REMARK   30  A    between atoms: _72  and  _74
REMARK   31  A    between atoms: _74  and  _75
REMARK   32  A    between atoms: _74  and  _77
REMARK   33  A    between atoms: _77  and  _78
REMARK   34  A    between atoms: _83  and  _84
REMARK   35  A    between atoms: _86  and  _88
REMARK   36  A    between atoms: _88  and  _89
REMARK   37  A    between atoms: _88  and  _91
REMARK   38  A    between atoms: _91  and  _92
REMARK   39  A    between atoms: _95  and  _97
REMARK   40  A    between atoms: _97  and  _98
REMARK   41  A    between atoms: _97  and  _100
REMARK   42  A    between atoms: _100  and  _101
REMARK   43  A    between atoms: _104  and  _106
REMARK   44  A    between atoms: _106  and  _107
REMARK   45  A    between atoms: _106  and  _109
REMARK   46  A    between atoms: _109  and  _110
REMARK   47  A    between atoms: _113  and  _115
REMARK   48  A    between atoms: _115  and  _116
REMARK   49  A    between atoms: _115  and  _118
REMARK   50  A    between atoms: _118  and  _119
REMARK   51  A    between atoms: _122  and  _124
REMARK   52  A    between atoms: _124  and  _125
REMARK   53  A    between atoms: _127  and  _129
REMARK   54  A    between atoms: _129  and  _130
REMARK   55  A    between atoms: _129  and  _132
REMARK   56  A    between atoms: _132  and  _133
REMARK   57  A    between atoms: _135  and  _137
REMARK   58  A    between atoms: _137  and  _138
REMARK   59  A    between atoms: _137  and  _140
REMARK   60  A    between atoms: _140  and  _141
REMARK   61  A    between atoms: _143  and  _145
REMARK   62  A    between atoms: _145  and  _146
REMARK   63  A    between atoms: _145  and  _148
REMARK   64  A    between atoms: _148  and  _149
REMARK   65  A    between atoms: _151  and  _153
REMARK   66  A    between atoms: _153  and  _154
REMARK   67  A    between atoms: _153  and  _156
REMARK   68  A    between atoms: _156  and  _157
REMARK   69  A    between atoms: _162  and  _164
REMARK   70  A    between atoms: _164  and  _165
REMARK   71  A    between atoms: _164  and  _167
REMARK   72  A    between atoms: _167  and  _168
REMARK   73  A    between atoms: _168  and  _169
REMARK   74  A    between atoms: _174  and  _176
REMARK   75  A    between atoms: _176  and  _177
REMARK   76  A    between atoms: _176  and  _179
REMARK   77  A    between atoms: _179  and  _180
REMARK   78  A    between atoms: _182  and  _184
REMARK   79  A    between atoms: _184  and  _185
REMARK   80  A    between atoms: _184  and  _187
REMARK   81  A    between atoms: _187  and  _188
REMARK   82  A    between atoms: _193  and  _194
REMARK   83  A    between atoms: _196  and  _198
REMARK   84  A    between atoms: _198  and  _199
REMARK   85  A    between atoms: _198  and  _201
REMARK   86  A    between atoms: _203  and  _205
REMARK   87  A    between atoms: _205  and  _206
REMARK   88  A    between atoms: _205  and  _208
REMARK   89  A    between atoms: _208  and  _209
REMARK   90  A    between atoms: _209  and  _210
REMARK   91  A    between atoms: _213  and  _215
REMARK   92  A    between atoms: _215  and  _216
REMARK   93  A    between atoms: _218  and  _220
REMARK   94  A    between atoms: _220  and  _221
REMARK   95  A    between atoms: _220  and  _223
REMARK   96  A    between atoms: _223  and  _224
REMARK   97  A    between atoms: _226  and  _228
REMARK   98  A    between atoms: _228  and  _229
REMARK   99  A    between atoms: _228  and  _231
REMARK  100  A    between atoms: _231  and  _232
REMARK  101  A    between atoms: _235  and  _237
REMARK  102  A    between atoms: _237  and  _238
REMARK  103  A    between atoms: _237  and  _240
REMARK  104  A    between atoms: _240  and  _241
REMARK  105  A    between atoms: _241  and  _242
REMARK  106  A    between atoms: _245  and  _247
REMARK  107  A    between atoms: _247  and  _248
REMARK  108  A    between atoms: _247  and  _250
REMARK  109  A    between atoms: _250  and  _251
REMARK  110  A    between atoms: _253  and  _255
REMARK  111  A    between atoms: _255  and  _256
REMARK  112  A    between atoms: _255  and  _258
REMARK  113  A    between atoms: _258  and  _259
REMARK  114  A    between atoms: _262  and  _264
REMARK  115  A    between atoms: _264  and  _265
REMARK  116  A    between atoms: _264  and  _267
REMARK  117  A    between atoms: _267  and  _268
REMARK  118  A    between atoms: _274  and  _276
REMARK  119  A    between atoms: _276  and  _277
REMARK  120  A    between atoms: _276  and  _279
REMARK  121  A    between atoms: _279  and  _280
REMARK  122  A    between atoms: _283  and  _285
REMARK  123  A    between atoms: _285  and  _286
REMARK  124  A    between atoms: _285  and  _288
REMARK  125  A    between atoms: _288  and  _289
REMARK  126  A    between atoms: _294  and  _295
REMARK  127  A    between atoms: _297  and  _299
REMARK  128  A    between atoms: _299  and  _300
REMARK  129  A    between atoms: _299  and  _302
REMARK  130  A    between atoms: _302  and  _303
REMARK  131  A    between atoms: _303  and  _304
REMARK  132  A    between atoms: _309  and  _311
REMARK  133  A    between atoms: _311  and  _312
REMARK  134  A    between atoms: _311  and  _314
REMARK  135  A    between atoms: _314  and  _315
REMARK  136  A    between atoms: _315  and  _316
REMARK  137  A    between atoms: _321  and  _323
REMARK  138  A    between atoms: _323  and  _324
REMARK  139  A    between atoms: _327  and  _329
REMARK  140  A    between atoms: _329  and  _330
REMARK  141  A    between atoms: _332  and  _334
REMARK  142  A    between atoms: _334  and  _335
REMARK  143  A    between atoms: _334  and  _337
REMARK  144  A    between atoms: _340  and  _342
REMARK  145  A    between atoms: _342  and  _343
REMARK  146  A    between atoms: _342  and  _345
REMARK  147  A    between atoms: _345  and  _346
REMARK  148  A    between atoms: _349  and  _351
REMARK  149  A    between atoms: _351  and  _352
REMARK  150  A    between atoms: _354  and  _356
REMARK  151  A    between atoms: _356  and  _357
REMARK  152  A    between atoms: _356  and  _359
REMARK  153  A    between atoms: _359  and  _360
REMARK  154  A    between atoms: _360  and  _361
REMARK  155  A    between atoms: _363  and  _365
REMARK  156  A    between atoms: _365  and  _366
REMARK  157  A    between atoms: _365  and  _368
REMARK  158  A    between atoms: _368  and  _369
REMARK  159  A    between atoms: _371  and  _373
REMARK  160  A    between atoms: _373  and  _374
REMARK  161  A    between atoms: _373  and  _376
REMARK  162  A    between atoms: _376  and  _377
REMARK  163  A    between atoms: _377  and  _378
REMARK  164  A    between atoms: _378  and  _379
REMARK  165  A    between atoms: _379  and  _380
REMARK  166  A    between atoms: _384  and  _386
REMARK  167  A    between atoms: _386  and  _387
REMARK  168  A    between atoms: _386  and  _389
REMARK  169  A    between atoms: _389  and  _390
REMARK  170  A    between atoms: _390  and  _391
REMARK  171  A    between atoms: _391  and  _392
REMARK  172  A    between atoms: _401  and  _403
REMARK  173  A    between atoms: _403  and  _404
REMARK  174  A    between atoms: _403  and  _406
REMARK  175  A    between atoms: _406  and  _407
REMARK  176  A    between atoms: _412  and  _413
REMARK  177  A    between atoms: _415  and  _417
REMARK  178  A    between atoms: _417  and  _418
REMARK  179  A    between atoms: _417  and  _420
REMARK  180  A    between atoms: _420  and  _421
REMARK  181  A    between atoms: _426  and  _427
REMARK  182  A    between atoms: _429  and  _431
REMARK  183  A    between atoms: _431  and  _432
REMARK  184  A    between atoms: _431  and  _434
REMARK  185  A    between atoms: _434  and  _435
REMARK  186  A    between atoms: _440  and  _441
REMARK  187  A    between atoms: _443  and  _445
REMARK  188  A    between atoms: _445  and  _446
REMARK  189  A    between atoms: _445  and  _448
REMARK  190  A    between atoms: _448  and  _449
REMARK  191  A    between atoms: _452  and  _454
REMARK  192  A    between atoms: _454  and  _455
REMARK  193  A    between atoms: _454  and  _457
REMARK  194  A    between atoms: _460  and  _462
REMARK  195  A    between atoms: _462  and  _463
REMARK  196  A    between atoms: _462  and  _465
REMARK  197  A    between atoms: _465  and  _466
REMARK  198  A    between atoms: _469  and  _471
REMARK  199  A    between atoms: _471  and  _472
REMARK  200  A    between atoms: _471  and  _474
REMARK  201  A    between atoms: _474  and  _475
REMARK  202  A    between atoms: _477  and  _479
REMARK  203  A    between atoms: _479  and  _480
REMARK  204  A    between atoms: _482  and  _484
REMARK  205  A    between atoms: _484  and  _485
REMARK  206  A    between atoms: _484  and  _487
REMARK  207  A    between atoms: _487  and  _488
REMARK  208  A    between atoms: _490  and  _492
REMARK  209  A    between atoms: _492  and  _493
REMARK  210  A    between atoms: _492  and  _495
REMARK  211  A    between atoms: _495  and  _496
REMARK  212  A    between atoms: _499  and  _501
REMARK  213  A    between atoms: _501  and  _502
REMARK  214  A    between atoms: _501  and  _504
REMARK  215  A    between atoms: _504  and  _505
REMARK  216  A    between atoms: _511  and  _513
REMARK  217  A    between atoms: _513  and  _514
REMARK  218  A    between atoms: _513  and  _516
REMARK  219  A    between atoms: _516  and  _517
REMARK  220  A    between atoms: _520  and  _522
REMARK  221  A    between atoms: _522  and  _523
REMARK  222  A    between atoms: _522  and  _525
REMARK  223  A    between atoms: _525  and  _526
REMARK  224  A    between atoms: _531  and  _533
REMARK  225  A    between atoms: _533  and  _534
REMARK  226  A    between atoms: _533  and  _536
REMARK  227  A    between atoms: _536  and  _537
REMARK  228  A    between atoms: _542  and  _543
REMARK  229  A    between atoms: _545  and  _547
REMARK  230  A    between atoms: _547  and  _548
REMARK  231  A    between atoms: _547  and  _550
REMARK  232  A    between atoms: _550  and  _551
REMARK  233  A    between atoms: _551  and  _552
REMARK  234  A    between atoms: _552  and  _553
REMARK  235  A    between atoms: _553  and  _554
REMARK  236  A    between atoms: _558  and  _560
REMARK  237  A    between atoms: _560  and  _561
REMARK  238  A    between atoms: _560  and  _563
REMARK  239  A    between atoms: _563  and  _564
REMARK  240  A    between atoms: _564  and  _565
REMARK  241  A    between atoms: _568  and  _570
REMARK  242  A    between atoms: _570  and  _571
REMARK  243  A    between atoms: _570  and  _573
REMARK  244  A    between atoms: _573  and  _574
REMARK  245  A    between atoms: _574  and  _575
REMARK  246  A    between atoms: _575  and  _576
REMARK  247  A    between atoms: _576  and  _577
REMARK  248  A    between atoms: _581  and  _583
REMARK  249  A    between atoms: _583  and  _584
REMARK  250  A    between atoms: _583  and  _586
REMARK  251  A    between atoms: _589  and  _591
REMARK  252  A    between atoms: _591  and  _592
REMARK  253  A    between atoms: _591  and  _594
REMARK  254  A    between atoms: _594  and  _595
REMARK  255  A    between atoms: _600  and  _602
REMARK  256  A    between atoms: _602  and  _603
REMARK  257  A    between atoms: _602  and  _605
REMARK  258  A    between atoms: _605  and  _606
REMARK  259  A    between atoms: _606  and  _607
REMARK  260  A    between atoms: _607  and  _608
REMARK  261  A    between atoms: _608  and  _609
REMARK  262  A    between atoms: _614  and  _615
REMARK  263  A    between atoms: _620  and  _622
REMARK  264  A    between atoms: _622  and  _623
REMARK  265  A    between atoms: _622  and  _625
REMARK  266  A    between atoms: _625  and  _626
REMARK  267  A    between atoms: _629  and  _631
REMARK  268  A    between atoms: _631  and  _632
REMARK  269  A    between atoms: _634  and  _636
REMARK  270  A    between atoms: _636  and  _637
REMARK  271  A    between atoms: _636  and  _639
REMARK  272  A    between atoms: _639  and  _640
REMARK                            x       y       z     vdW  Elec       q    Type
REMARK                         _______ _______ _______ _____ _____    ______ ____
ROOT
ATOM      1  O   HOH     1      -3.162  87.530  46.228  0.00  0.00    +0.000 OA
ENDROOT
TORSDOF 0
REMARK  Name = ../refined-set-2016/4zl4/4zl4_pocket.pdb
REMARK  272 active torsions:
REMARK  status: ('A' for Active; 'I' for Inactive)
REMARK    1  A    between atoms: _1  and  _3
REMARK    2  A    between atoms: _3  and  _4
REMARK    3  A    between atoms: _3  and  _6
REMARK    4  A    between atoms: _6  and  _7
REMARK    5  A    between atoms: _10  and  _12
REMARK    6  A    between atoms: _12  and  _13
REMARK    7  A    between atoms: _12  and  _15
REMARK    8  A    between atoms: _15  and  _16
REMARK    9  A    between atoms: _19  and  _21
REMARK   10  A    between atoms: _21  and  _22
REMARK   11  A    between atoms: _21  and  _24
REMARK   12  A    between atoms: _24  and  _25
REMARK   13  A    between atoms: _28  and  _30
REMARK   14  A    between atoms: _30  and  _31
REMARK   15  A    between atoms: _30  and  _33
REMARK   16  A    between atoms: _33  and  _34
REMARK   17  A    between atoms: _34  and  _35
REMARK   18  A    between atoms: _38  and  _40
REMARK   19  A    between atoms: _40  and  _41
REMARK   20  A    between atoms: _40  and  _43
REMARK   21  A    between atoms: _43  and  _44
REMARK   22  A    between atoms: _49  and  _50
REMARK   23  A    between atoms: _52  and  _54
REMARK   24  A    between atoms: _54  and  _55
REMARK   25  A    between atoms: _58  and  _60
REMARK   26  A    between atoms: _60  and  _61
REMARK   27  A    between atoms: _60  and  _63
REMARK   28  A    between atoms: _63  and  _64
REMARK   29  A    between atoms: _69  and  _70
REMARK   30  A    between atoms: _72  and  _74
REMARK   31  A    between atoms: _74  and  _75
REMARK   32  A    between atoms: _74  and  _77
REMARK   33  A    between atoms: _77  and  _78
REMARK   34  A    between atoms: _83  and  _84
REMARK   35  A    between atoms: _86  and  _88
REMARK   36  A    between atoms: _88  and  _89
REMARK   37  A    between atoms: _88  and  _91
REMARK   38  A    between atoms: _91  and  _92
REMARK   39  A    between atoms: _95  and  _97
REMARK   40  A    between atoms: _97  and  _98
REMARK   41  A    between atoms: _97  and  _100
REMARK   42  A    between atoms: _100  and  _101
REMARK   43  A    between atoms: _104  and  _106
REMARK   44  A    between atoms: _106  and  _107
REMARK   45  A    between atoms: _106  and  _109
REMARK   46  A    between atoms: _109  and  _110
REMARK   47  A    between atoms: _113  and  _115
REMARK   48  A    between atoms: _115  and  _116
REMARK   49  A    between atoms: _115  and  _118
REMARK   50  A    between atoms: _118  and  _119
REMARK   51  A    between atoms: _122  and  _124
REMARK   52  A    between atoms: _124  and  _125
REMARK   53  A    between atoms: _127  and  _129
REMARK   54  A    between atoms: _129  and  _130
REMARK   55  A    between atoms: _129  and  _132
REMARK   56  A    between atoms: _132  and  _133
REMARK   57  A    between atoms: _135  and  _137
REMARK   58  A    between atoms: _137  and  _138
REMARK   59  A    between atoms: _137  and  _140
REMARK   60  A    between atoms: _140  and  _141
REMARK   61  A    between atoms: _143  and  _145
REMARK   62  A    between atoms: _145  and  _146
REMARK   63  A    between atoms: _145  and  _148
REMARK   64  A    between atoms: _148  and  _149
REMARK   65  A    between atoms: _151  and  _153
REMARK   66  A    between atoms: _153  and  _154
REMARK   67  A    between atoms: _153  and  _156
REMARK   68  A    between atoms: _156  and  _157
REMARK   69  A    between atoms: _162  and  _164
REMARK   70  A    between atoms: _164  and  _165
REMARK   71  A    between atoms: _164  and  _167
REMARK   72  A    between atoms: _167  and  _168
REMARK   73  A    between atoms: _168  and  _169
REMARK   74  A    between atoms: _174  and  _176
REMARK   75  A    between atoms: _176  and  _177
REMARK   76  A    between atoms: _176  and  _179
REMARK   77  A    between atoms: _179  and  _180
REMARK   78  A    between atoms: _182  and  _184
REMARK   79  A    between atoms: _184  and  _185
REMARK   80  A    between atoms: _184  and  _187
REMARK   81  A    between atoms: _187  and  _188
REMARK   82  A    between atoms: _193  and  _194
REMARK   83  A    between atoms: _196  and  _198
REMARK   84  A    between atoms: _198  and  _199
REMARK   85  A    between atoms: _198  and  _201
REMARK   86  A    between atoms: _203  and  _205
REMARK   87  A    between atoms: _205  and  _206
REMARK   88  A    between atoms: _205  and  _208
REMARK   89  A    between atoms: _208  and  _209
REMARK   90  A    between atoms: _209  and  _210
REMARK   91  A    between atoms: _213  and  _215
REMARK   92  A    between atoms: _215  and  _216
REMARK   93  A    between atoms: _218  and  _220
REMARK   94  A    between atoms: _220  and  _221
REMARK   95  A    between atoms: _220  and  _223
REMARK   96  A    between atoms: _223  and  _224
REMARK   97  A    between atoms: _226  and  _228
REMARK   98  A    between atoms: _228  and  _229
REMARK   99  A    between atoms: _228  and  _231
REMARK  100  A    between atoms: _231  and  _232
REMARK  101  A    between atoms: _235  and  _237
REMARK  102  A    between atoms: _237  and  _238
REMARK  103  A    between atoms: _237  and  _240
REMARK  104  A    between atoms: _240  and  _241
REMARK  105  A    between atoms: _241  and  _242
REMARK  106  A    between atoms: _245  and  _247
REMARK  107  A    between atoms: _247  and  _248
REMARK  108  A    between atoms: _247  and  _250
REMARK  109  A    between atoms: _250  and  _251
REMARK  110  A    between atoms: _253  and  _255
REMARK  111  A    between atoms: _255  and  _256
REMARK  112  A    between atoms: _255  and  _258
REMARK  113  A    between atoms: _258  and  _259
REMARK  114  A    between atoms: _262  and  _264
REMARK  115  A    between atoms: _264  and  _265
REMARK  116  A    between atoms: _264  and  _267
REMARK  117  A    between atoms: _267  and  _268
REMARK  118  A    between atoms: _274  and  _276
REMARK  119  A    between atoms: _276  and  _277
REMARK  120  A    between atoms: _276  and  _279
REMARK  121  A    between atoms: _279  and  _280
REMARK  122  A    between atoms: _283  and  _285
REMARK  123  A    between atoms: _285  and  _286
REMARK  124  A    between atoms: _285  and  _288
REMARK  125  A    between atoms: _288  and  _289
REMARK  126  A    between atoms: _294  and  _295
REMARK  127  A    between atoms: _297  and  _299
REMARK  128  A    between atoms: _299  and  _300
REMARK  129  A    between atoms: _299  and  _302
REMARK  130  A    between atoms: _302  and  _303
REMARK  131  A    between atoms: _303  and  _304
REMARK  132  A    between atoms: _309  and  _311
REMARK  133  A    between atoms: _311  and  _312
REMARK  134  A    between atoms: _311  and  _314
REMARK  135  A    between atoms: _314  and  _315
REMARK  136  A    between atoms: _315  and  _316
REMARK  137  A    between atoms: _321  and  _323
REMARK  138  A    between atoms: _323  and  _324
REMARK  139  A    between atoms: _327  and  _329
REMARK  140  A    between atoms: _329  and  _330
REMARK  141  A    between atoms: _332  and  _334
REMARK  142  A    between atoms: _334  and  _335
REMARK  143  A    between atoms: _334  and  _337
REMARK  144  A    between atoms: _340  and  _342
REMARK  145  A    between atoms: _342  and  _343
REMARK  146  A    between atoms: _342  and  _345
REMARK  147  A    between atoms: _345  and  _346
REMARK  148  A    between atoms: _349  and  _351
REMARK  149  A    between atoms: _351  and  _352
REMARK  150  A    between atoms: _354  and  _356
REMARK  151  A    between atoms: _356  and  _357
REMARK  152  A    between atoms: _356  and  _359
REMARK  153  A    between atoms: _359  and  _360
REMARK  154  A    between atoms: _360  and  _361
REMARK  155  A    between atoms: _363  and  _365
REMARK  156  A    between atoms: _365  and  _366
REMARK  157  A    between atoms: _365  and  _368
REMARK  158  A    between atoms: _368  and  _369
REMARK  159  A    between atoms: _371  and  _373
REMARK  160  A    between atoms: _373  and  _374
REMARK  161  A    between atoms: _373  and  _376
REMARK  162  A    between atoms: _376  and  _377
REMARK  163  A    between atoms: _377  and  _378
REMARK  164  A    between atoms: _378  and  _379
REMARK  165  A    between atoms: _379  and  _380
REMARK  166  A    between atoms: _384  and  _386
REMARK  167  A    between atoms: _386  and  _387
REMARK  168  A    between atoms: _386  and  _389
REMARK  169  A    between atoms: _389  and  _390
REMARK  170  A    between atoms: _390  and  _391
REMARK  171  A    between atoms: _391  and  _392
REMARK  172  A    between atoms: _401  and  _403
REMARK  173  A    between atoms: _403  and  _404
REMARK  174  A    between atoms: _403  and  _406
REMARK  175  A    between atoms: _406  and  _407
REMARK  176  A    between atoms: _412  and  _413
REMARK  177  A    between atoms: _415  and  _417
REMARK  178  A    between atoms: _417  and  _418
REMARK  179  A    between atoms: _417  and  _420
REMARK  180  A    between atoms: _420  and  _421
REMARK  181  A    between atoms: _426  and  _427
REMARK  182  A    between atoms: _429  and  _431
REMARK  183  A    between atoms: _431  and  _432
REMARK  184  A    between atoms: _431  and  _434
REMARK  185  A    between atoms: _434  and  _435
REMARK  186  A    between atoms: _440  and  _441
REMARK  187  A    between atoms: _443  and  _445
REMARK  188  A    between atoms: _445  and  _446
REMARK  189  A    between atoms: _445  and  _448
REMARK  190  A    between atoms: _448  and  _449
REMARK  191  A    between atoms: _452  and  _454
REMARK  192  A    between atoms: _454  and  _455
REMARK  193  A    between atoms: _454  and  _457
REMARK  194  A    between atoms: _460  and  _462
REMARK  195  A    between atoms: _462  and  _463
REMARK  196  A    between atoms: _462  and  _465
REMARK  197  A    between atoms: _465  and  _466
REMARK  198  A    between atoms: _469  and  _471
REMARK  199  A    between atoms: _471  and  _472
REMARK  200  A    between atoms: _471  and  _474
REMARK  201  A    between atoms: _474  and  _475
REMARK  202  A    between atoms: _477  and  _479
REMARK  203  A    between atoms: _479  and  _480
REMARK  204  A    between atoms: _482  and  _484
REMARK  205  A    between atoms: _484  and  _485
REMARK  206  A    between atoms: _484  and  _487
REMARK  207  A    between atoms: _487  and  _488
REMARK  208  A    between atoms: _490  and  _492
REMARK  209  A    between atoms: _492  and  _493
REMARK  210  A    between atoms: _492  and  _495
REMARK  211  A    between atoms: _495  and  _496
REMARK  212  A    between atoms: _499  and  _501
REMARK  213  A    between atoms: _501  and  _502
REMARK  214  A    between atoms: _501  and  _504
REMARK  215  A    between atoms: _504  and  _505
REMARK  216  A    between atoms: _511  and  _513
REMARK  217  A    between atoms: _513  and  _514
REMARK  218  A    between atoms: _513  and  _516
REMARK  219  A    between atoms: _516  and  _517
REMARK  220  A    between atoms: _520  and  _522
REMARK  221  A    between atoms: _522  and  _523
REMARK  222  A    between atoms: _522  and  _525
REMARK  223  A    between atoms: _525  and  _526
REMARK  224  A    between atoms: _531  and  _533
REMARK  225  A    between atoms: _533  and  _534
REMARK  226  A    between atoms: _533  and  _536
REMARK  227  A    between atoms: _536  and  _537
REMARK  228  A    between atoms: _542  and  _543
REMARK  229  A    between atoms: _545  and  _547
REMARK  230  A    between atoms: _547  and  _548
REMARK  231  A    between atoms: _547  and  _550
REMARK  232  A    between atoms: _550  and  _551
REMARK  233  A    between atoms: _551  and  _552
REMARK  234  A    between atoms: _552  and  _553
REMARK  235  A    between atoms: _553  and  _554
REMARK  236  A    between atoms: _558  and  _560
REMARK  237  A    between atoms: _560  and  _561
REMARK  238  A    between atoms: _560  and  _563
REMARK  239  A    between atoms: _563  and  _564
REMARK  240  A    between atoms: _564  and  _565
REMARK  241  A    between atoms: _568  and  _570
REMARK  242  A    between atoms: _570  and  _571
REMARK  243  A    between atoms: _570  and  _573
REMARK  244  A    between atoms: _573  and  _574
REMARK  245  A    between atoms: _574  and  _575
REMARK  246  A    between atoms: _575  and  _576
REMARK  247  A    between atoms: _576  and  _577
REMARK  248  A    between atoms: _581  and  _583
REMARK  249  A    between atoms: _583  and  _584
REMARK  250  A    between atoms: _583  and  _586
REMARK  251  A    between atoms: _589  and  _591
REMARK  252  A    between atoms: _591  and  _592
REMARK  253  A    between atoms: _591  and  _594
REMARK  254  A    between atoms: _594  and  _595
REMARK  255  A    between atoms: _600  and  _602
REMARK  256  A    between atoms: _602  and  _603
REMARK  257  A    between atoms: _602  and  _605
REMARK  258  A    between atoms: _605  and  _606
REMARK  259  A    between atoms: _606  and  _607
REMARK  260  A    between atoms: _607  and  _608
REMARK  261  A    between atoms: _608  and  _609
REMARK  262  A    between atoms: _614  and  _615
REMARK  263  A    between atoms: _620  and  _622
REMARK  264  A    between atoms: _622  and  _623
REMARK  265  A    between atoms: _622  and  _625
REMARK  266  A    between atoms: _625  and  _626
REMARK  267  A    between atoms: _629  and  _631
REMARK  268  A    between atoms: _631  and  _632
REMARK  269  A    between atoms: _634  and  _636
REMARK  270  A    between atoms: _636  and  _637
REMARK  271  A    between atoms: _636  and  _639
REMARK  272  A    between atoms: _639  and  _640
REMARK                            x       y       z     vdW  Elec       q    Type
REMARK                         _______ _______ _______ _____ _____    ______ ____
ROOT
ATOM      1  O   HOH     1      -8.632  85.912  40.383  0.00  0.00    +0.000 OA
ENDROOT
TORSDOF 0
REMARK  Name = ../refined-set-2016/4zl4/4zl4_pocket.pdb
REMARK  272 active torsions:
REMARK  status: ('A' for Active; 'I' for Inactive)
REMARK    1  A    between atoms: _1  and  _3
REMARK    2  A    between atoms: _3  and  _4
REMARK    3  A    between atoms: _3  and  _6
REMARK    4  A    between atoms: _6  and  _7
REMARK    5  A    between atoms: _10  and  _12
REMARK    6  A    between atoms: _12  and  _13
REMARK    7  A    between atoms: _12  and  _15
REMARK    8  A    between atoms: _15  and  _16
REMARK    9  A    between atoms: _19  and  _21
REMARK   10  A    between atoms: _21  and  _22
REMARK   11  A    between atoms: _21  and  _24
REMARK   12  A    between atoms: _24  and  _25
REMARK   13  A    between atoms: _28  and  _30
REMARK   14  A    between atoms: _30  and  _31
REMARK   15  A    between atoms: _30  and  _33
REMARK   16  A    between atoms: _33  and  _34
REMARK   17  A    between atoms: _34  and  _35
REMARK   18  A    between atoms: _38  and  _40
REMARK   19  A    between atoms: _40  and  _41
REMARK   20  A    between atoms: _40  and  _43
REMARK   21  A    between atoms: _43  and  _44
REMARK   22  A    between atoms: _49  and  _50
REMARK   23  A    between atoms: _52  and  _54
REMARK   24  A    between atoms: _54  and  _55
REMARK   25  A    between atoms: _58  and  _60
REMARK   26  A    between atoms: _60  and  _61
REMARK   27  A    between atoms: _60  and  _63
REMARK   28  A    between atoms: _63  and  _64
REMARK   29  A    between atoms: _69  and  _70
REMARK   30  A    between atoms: _72  and  _74
REMARK   31  A    between atoms: _74  and  _75
REMARK   32  A    between atoms: _74  and  _77
REMARK   33  A    between atoms: _77  and  _78
REMARK   34  A    between atoms: _83  and  _84
REMARK   35  A    between atoms: _86  and  _88
REMARK   36  A    between atoms: _88  and  _89
REMARK   37  A    between atoms: _88  and  _91
REMARK   38  A    between atoms: _91  and  _92
REMARK   39  A    between atoms: _95  and  _97
REMARK   40  A    between atoms: _97  and  _98
REMARK   41  A    between atoms: _97  and  _100
REMARK   42  A    between atoms: _100  and  _101
REMARK   43  A    between atoms: _104  and  _106
REMARK   44  A    between atoms: _106  and  _107
REMARK   45  A    between atoms: _106  and  _109
REMARK   46  A    between atoms: _109  and  _110
REMARK   47  A    between atoms: _113  and  _115
REMARK   48  A    between atoms: _115  and  _116
REMARK   49  A    between atoms: _115  and  _118
REMARK   50  A    between atoms: _118  and  _119
REMARK   51  A    between atoms: _122  and  _124
REMARK   52  A    between atoms: _124  and  _125
REMARK   53  A    between atoms: _127  and  _129
REMARK   54  A    between atoms: _129  and  _130
REMARK   55  A    between atoms: _129  and  _132
REMARK   56  A    between atoms: _132  and  _133
REMARK   57  A    between atoms: _135  and  _137
REMARK   58  A    between atoms: _137  and  _138
REMARK   59  A    between atoms: _137  and  _140
REMARK   60  A    between atoms: _140  and  _141
REMARK   61  A    between atoms: _143  and  _145
REMARK   62  A    between atoms: _145  and  _146
REMARK   63  A    between atoms: _145  and  _148
REMARK   64  A    between atoms: _148  and  _149
REMARK   65  A    between atoms: _151  and  _153
REMARK   66  A    between atoms: _153  and  _154
REMARK   67  A    between atoms: _153  and  _156
REMARK   68  A    between atoms: _156  and  _157
REMARK   69  A    between atoms: _162  and  _164
REMARK   70  A    between atoms: _164  and  _165
REMARK   71  A    between atoms: _164  and  _167
REMARK   72  A    between atoms: _167  and  _168
REMARK   73  A    between atoms: _168  and  _169
REMARK   74  A    between atoms: _174  and  _176
REMARK   75  A    between atoms: _176  and  _177
REMARK   76  A    between atoms: _176  and  _179
REMARK   77  A    between atoms: _179  and  _180
REMARK   78  A    between atoms: _182  and  _184
REMARK   79  A    between atoms: _184  and  _185
REMARK   80  A    between atoms: _184  and  _187
REMARK   81  A    between atoms: _187  and  _188
REMARK   82  A    between atoms: _193  and  _194
REMARK   83  A    between atoms: _196  and  _198
REMARK   84  A    between atoms: _198  and  _199
REMARK   85  A    between atoms: _198  and  _201
REMARK   86  A    between atoms: _203  and  _205
REMARK   87  A    between atoms: _205  and  _206
REMARK   88  A    between atoms: _205  and  _208
REMARK   89  A    between atoms: _208  and  _209
REMARK   90  A    between atoms: _209  and  _210
REMARK   91  A    between atoms: _213  and  _215
REMARK   92  A    between atoms: _215  and  _216
REMARK   93  A    between atoms: _218  and  _220
REMARK   94  A    between atoms: _220  and  _221
REMARK   95  A    between atoms: _220  and  _223
REMARK   96  A    between atoms: _223  and  _224
REMARK   97  A    between atoms: _226  and  _228
REMARK   98  A    between atoms: _228  and  _229
REMARK   99  A    between atoms: _228  and  _231
REMARK  100  A    between atoms: _231  and  _232
REMARK  101  A    between atoms: _235  and  _237
REMARK  102  A    between atoms: _237  and  _238
REMARK  103  A    between atoms: _237  and  _240
REMARK  104  A    between atoms: _240  and  _241
REMARK  105  A    between atoms: _241  and  _242
REMARK  106  A    between atoms: _245  and  _247
REMARK  107  A    between atoms: _247  and  _248
REMARK  108  A    between atoms: _247  and  _250
REMARK  109  A    between atoms: _250  and  _251
REMARK  110  A    between atoms: _253  and  _255
REMARK  111  A    between atoms: _255  and  _256
REMARK  112  A    between atoms: _255  and  _258
REMARK  113  A    between atoms: _258  and  _259
REMARK  114  A    between atoms: _262  and  _264
REMARK  115  A    between atoms: _264  and  _265
REMARK  116  A    between atoms: _264  and  _267
REMARK  117  A    between atoms: _267  and  _268
REMARK  118  A    between atoms: _274  and  _276
REMARK  119  A    between atoms: _276  and  _277
REMARK  120  A    between atoms: _276  and  _279
REMARK  121  A    between atoms: _279  and  _280
REMARK  122  A    between atoms: _283  and  _285
REMARK  123  A    between atoms: _285  and  _286
REMARK  124  A    between atoms: _285  and  _288
REMARK  125  A    between atoms: _288  and  _289
REMARK  126  A    between atoms: _294  and  _295
REMARK  127  A    between atoms: _297  and  _299
REMARK  128  A    between atoms: _299  and  _300
REMARK  129  A    between atoms: _299  and  _302
REMARK  130  A    between atoms: _302  and  _303
REMARK  131  A    between atoms: _303  and  _304
REMARK  132  A    between atoms: _309  and  _311
REMARK  133  A    between atoms: _311  and  _312
REMARK  134  A    between atoms: _311  and  _314
REMARK  135  A    between atoms: _314  and  _315
REMARK  136  A    between atoms: _315  and  _316
REMARK  137  A    between atoms: _321  and  _323
REMARK  138  A    between atoms: _323  and  _324
REMARK  139  A    between atoms: _327  and  _329
REMARK  140  A    between atoms: _329  and  _330
REMARK  141  A    between atoms: _332  and  _334
REMARK  142  A    between atoms: _334  and  _335
REMARK  143  A    between atoms: _334  and  _337
REMARK  144  A    between atoms: _340  and  _342
REMARK  145  A    between atoms: _342  and  _343
REMARK  146  A    between atoms: _342  and  _345
REMARK  147  A    between atoms: _345  and  _346
REMARK  148  A    between atoms: _349  and  _351
REMARK  149  A    between atoms: _351  and  _352
REMARK  150  A    between atoms: _354  and  _356
REMARK  151  A    between atoms: _356  and  _357
REMARK  152  A    between atoms: _356  and  _359
REMARK  153  A    between atoms: _359  and  _360
REMARK  154  A    between atoms: _360  and  _361
REMARK  155  A    between atoms: _363  and  _365
REMARK  156  A    between atoms: _365  and  _366
REMARK  157  A    between atoms: _365  and  _368
REMARK  158  A    between atoms: _368  and  _369
REMARK  159  A    between atoms: _371  and  _373
REMARK  160  A    between atoms: _373  and  _374
REMARK  161  A    between atoms: _373  and  _376
REMARK  162  A    between atoms: _376  and  _377
REMARK  163  A    between atoms: _377  and  _378
REMARK  164  A    between atoms: _378  and  _379
REMARK  165  A    between atoms: _379  and  _380
REMARK  166  A    between atoms: _384  and  _386
REMARK  167  A    between atoms: _386  and  _387
REMARK  168  A    between atoms: _386  and  _389
REMARK  169  A    between atoms: _389  and  _390
REMARK  170  A    between atoms: _390  and  _391
REMARK  171  A    between atoms: _391  and  _392
REMARK  172  A    between atoms: _401  and  _403
REMARK  173  A    between atoms: _403  and  _404
REMARK  174  A    between atoms: _403  and  _406
REMARK  175  A    between atoms: _406  and  _407
REMARK  176  A    between atoms: _412  and  _413
REMARK  177  A    between atoms: _415  and  _417
REMARK  178  A    between atoms: _417  and  _418
REMARK  179  A    between atoms: _417  and  _420
REMARK  180  A    between atoms: _420  and  _421
REMARK  181  A    between atoms: _426  and  _427
REMARK  182  A    between atoms: _429  and  _431
REMARK  183  A    between atoms: _431  and  _432
REMARK  184  A    between atoms: _431  and  _434
REMARK  185  A    between atoms: _434  and  _435
REMARK  186  A    between atoms: _440  and  _441
REMARK  187  A    between atoms: _443  and  _445
REMARK  188  A    between atoms: _445  and  _446
REMARK  189  A    between atoms: _445  and  _448
REMARK  190  A    between atoms: _448  and  _449
REMARK  191  A    between atoms: _452  and  _454
REMARK  192  A    between atoms: _454  and  _455
REMARK  193  A    between atoms: _454  and  _457
REMARK  194  A    between atoms: _460  and  _462
REMARK  195  A    between atoms: _462  and  _463
REMARK  196  A    between atoms: _462  and  _465
REMARK  197  A    between atoms: _465  and  _466
REMARK  198  A    between atoms: _469  and  _471
REMARK  199  A    between atoms: _471  and  _472
REMARK  200  A    between atoms: _471  and  _474
REMARK  201  A    between atoms: _474  and  _475
REMARK  202  A    between atoms: _477  and  _479
REMARK  203  A    between atoms: _479  and  _480
REMARK  204  A    between atoms: _482  and  _484
REMARK  205  A    between atoms: _484  and  _485
REMARK  206  A    between atoms: _484  and  _487
REMARK  207  A    between atoms: _487  and  _488
REMARK  208  A    between atoms: _490  and  _492
REMARK  209  A    between atoms: _492  and  _493
REMARK  210  A    between atoms: _492  and  _495
REMARK  211  A    between atoms: _495  and  _496
REMARK  212  A    between atoms: _499  and  _501
REMARK  213  A    between atoms: _501  and  _502
REMARK  214  A    between atoms: _501  and  _504
REMARK  215  A    between atoms: _504  and  _505
REMARK  216  A    between atoms: _511  and  _513
REMARK  217  A    between atoms: _513  and  _514
REMARK  218  A    between atoms: _513  and  _516
REMARK  219  A    between atoms: _516  and  _517
REMARK  220  A    between atoms: _520  and  _522
REMARK  221  A    between atoms: _522  and  _523
REMARK  222  A    between atoms: _522  and  _525
REMARK  223  A    between atoms: _525  and  _526
REMARK  224  A    between atoms: _531  and  _533
REMARK  225  A    between atoms: _533  and  _534
REMARK  226  A    between atoms: _533  and  _536
REMARK  227  A    between atoms: _536  and  _537
REMARK  228  A    between atoms: _542  and  _543
REMARK  229  A    between atoms: _545  and  _547
REMARK  230  A    between atoms: _547  and  _548
REMARK  231  A    between atoms: _547  and  _550
REMARK  232  A    between atoms: _550  and  _551
REMARK  233  A    between atoms: _551  and  _552
REMARK  234  A    between atoms: _552  and  _553
REMARK  235  A    between atoms: _553  and  _554
REMARK  236  A    between atoms: _558  and  _560
REMARK  237  A    between atoms: _560  and  _561
REMARK  238  A    between atoms: _560  and  _563
REMARK  239  A    between atoms: _563  and  _564
REMARK  240  A    between atoms: _564  and  _565
REMARK  241  A    between atoms: _568  and  _570
REMARK  242  A    between atoms: _570  and  _571
REMARK  243  A    between atoms: _570  and  _573
REMARK  244  A    between atoms: _573  and  _574
REMARK  245  A    between atoms: _574  and  _575
REMARK  246  A    between atoms: _575  and  _576
REMARK  247  A    between atoms: _576  and  _577
REMARK  248  A    between atoms: _581  and  _583
REMARK  249  A    between atoms: _583  and  _584
REMARK  250  A    between atoms: _583  and  _586
REMARK  251  A    between atoms: _589  and  _591
REMARK  252  A    between atoms: _591  and  _592
REMARK  253  A    between atoms: _591  and  _594
REMARK  254  A    between atoms: _594  and  _595
REMARK  255  A    between atoms: _600  and  _602
REMARK  256  A    between atoms: _602  and  _603
REMARK  257  A    between atoms: _602  and  _605
REMARK  258  A    between atoms: _605  and  _606
REMARK  259  A    between atoms: _606  and  _607
REMARK  260  A    between atoms: _607  and  _608
REMARK  261  A    between atoms: _608  and  _609
REMARK  262  A    between atoms: _614  and  _615
REMARK  263  A    between atoms: _620  and  _622
REMARK  264  A    between atoms: _622  and  _623
REMARK  265  A    between atoms: _622  and  _625
REMARK  266  A    between atoms: _625  and  _626
REMARK  267  A    between atoms: _629  and  _631
REMARK  268  A    between atoms: _631  and  _632
REMARK  269  A    between atoms: _634  and  _636
REMARK  270  A    between atoms: _636  and  _637
REMARK  271  A    between atoms: _636  and  _639
REMARK  272  A    between atoms: _639  and  _640
REMARK                            x       y       z     vdW  Elec       q    Type
REMARK                         _______ _______ _______ _____ _____    ______ ____
ROOT
ATOM      1  O   HOH     1      -5.243 101.281  50.120  0.00  0.00    +0.000 OA
ENDROOT
TORSDOF 0
REMARK  Name = ../refined-set-2016/4zl4/4zl4_pocket.pdb
REMARK  272 active torsions:
REMARK  status: ('A' for Active; 'I' for Inactive)
REMARK    1  A    between atoms: _1  and  _3
REMARK    2  A    between atoms: _3  and  _4
REMARK    3  A    between atoms: _3  and  _6
REMARK    4  A    between atoms: _6  and  _7
REMARK    5  A    between atoms: _10  and  _12
REMARK    6  A    between atoms: _12  and  _13
REMARK    7  A    between atoms: _12  and  _15
REMARK    8  A    between atoms: _15  and  _16
REMARK    9  A    between atoms: _19  and  _21
REMARK   10  A    between atoms: _21  and  _22
REMARK   11  A    between atoms: _21  and  _24
REMARK   12  A    between atoms: _24  and  _25
REMARK   13  A    between atoms: _28  and  _30
REMARK   14  A    between atoms: _30  and  _31
REMARK   15  A    between atoms: _30  and  _33
REMARK   16  A    between atoms: _33  and  _34
REMARK   17  A    between atoms: _34  and  _35
REMARK   18  A    between atoms: _38  and  _40
REMARK   19  A    between atoms: _40  and  _41
REMARK   20  A    between atoms: _40  and  _43
REMARK   21  A    between atoms: _43  and  _44
REMARK   22  A    between atoms: _49  and  _50
REMARK   23  A    between atoms: _52  and  _54
REMARK   24  A    between atoms: _54  and  _55
REMARK   25  A    between atoms: _58  and  _60
REMARK   26  A    between atoms: _60  and  _61
REMARK   27  A    between atoms: _60  and  _63
REMARK   28  A    between atoms: _63  and  _64
REMARK   29  A    between atoms: _69  and  _70
REMARK   30  A    between atoms: _72  and  _74
REMARK   31  A    between atoms: _74  and  _75
REMARK   32  A    between atoms: _74  and  _77
REMARK   33  A    between atoms: _77  and  _78
REMARK   34  A    between atoms: _83  and  _84
REMARK   35  A    between atoms: _86  and  _88
REMARK   36  A    between atoms: _88  and  _89
REMARK   37  A    between atoms: _88  and  _91
REMARK   38  A    between atoms: _91  and  _92
REMARK   39  A    between atoms: _95  and  _97
REMARK   40  A    between atoms: _97  and  _98
REMARK   41  A    between atoms: _97  and  _100
REMARK   42  A    between atoms: _100  and  _101
REMARK   43  A    between atoms: _104  and  _106
REMARK   44  A    between atoms: _106  and  _107
REMARK   45  A    between atoms: _106  and  _109
REMARK   46  A    between atoms: _109  and  _110
REMARK   47  A    between atoms: _113  and  _115
REMARK   48  A    between atoms: _115  and  _116
REMARK   49  A    between atoms: _115  and  _118
REMARK   50  A    between atoms: _118  and  _119
REMARK   51  A    between atoms: _122  and  _124
REMARK   52  A    between atoms: _124  and  _125
REMARK   53  A    between atoms: _127  and  _129
REMARK   54  A    between atoms: _129  and  _130
REMARK   55  A    between atoms: _129  and  _132
REMARK   56  A    between atoms: _132  and  _133
REMARK   57  A    between atoms: _135  and  _137
REMARK   58  A    between atoms: _137  and  _138
REMARK   59  A    between atoms: _137  and  _140
REMARK   60  A    between atoms: _140  and  _141
REMARK   61  A    between atoms: _143  and  _145
REMARK   62  A    between atoms: _145  and  _146
REMARK   63  A    between atoms: _145  and  _148
REMARK   64  A    between atoms: _148  and  _149
REMARK   65  A    between atoms: _151  and  _153
REMARK   66  A    between atoms: _153  and  _154
REMARK   67  A    between atoms: _153  and  _156
REMARK   68  A    between atoms: _156  and  _157
REMARK   69  A    between atoms: _162  and  _164
REMARK   70  A    between atoms: _164  and  _165
REMARK   71  A    between atoms: _164  and  _167
REMARK   72  A    between atoms: _167  and  _168
REMARK   73  A    between atoms: _168  and  _169
REMARK   74  A    between atoms: _174  and  _176
REMARK   75  A    between atoms: _176  and  _177
REMARK   76  A    between atoms: _176  and  _179
REMARK   77  A    between atoms: _179  and  _180
REMARK   78  A    between atoms: _182  and  _184
REMARK   79  A    between atoms: _184  and  _185
REMARK   80  A    between atoms: _184  and  _187
REMARK   81  A    between atoms: _187  and  _188
REMARK   82  A    between atoms: _193  and  _194
REMARK   83  A    between atoms: _196  and  _198
REMARK   84  A    between atoms: _198  and  _199
REMARK   85  A    between atoms: _198  and  _201
REMARK   86  A    between atoms: _203  and  _205
REMARK   87  A    between atoms: _205  and  _206
REMARK   88  A    between atoms: _205  and  _208
REMARK   89  A    between atoms: _208  and  _209
REMARK   90  A    between atoms: _209  and  _210
REMARK   91  A    between atoms: _213  and  _215
REMARK   92  A    between atoms: _215  and  _216
REMARK   93  A    between atoms: _218  and  _220
REMARK   94  A    between atoms: _220  and  _221
REMARK   95  A    between atoms: _220  and  _223
REMARK   96  A    between atoms: _223  and  _224
REMARK   97  A    between atoms: _226  and  _228
REMARK   98  A    between atoms: _228  and  _229
REMARK   99  A    between atoms: _228  and  _231
REMARK  100  A    between atoms: _231  and  _232
REMARK  101  A    between atoms: _235  and  _237
REMARK  102  A    between atoms: _237  and  _238
REMARK  103  A    between atoms: _237  and  _240
REMARK  104  A    between atoms: _240  and  _241
REMARK  105  A    between atoms: _241  and  _242
REMARK  106  A    between atoms: _245  and  _247
REMARK  107  A    between atoms: _247  and  _248
REMARK  108  A    between atoms: _247  and  _250
REMARK  109  A    between atoms: _250  and  _251
REMARK  110  A    between atoms: _253  and  _255
REMARK  111  A    between atoms: _255  and  _256
REMARK  112  A    between atoms: _255  and  _258
REMARK  113  A    between atoms: _258  and  _259
REMARK  114  A    between atoms: _262  and  _264
REMARK  115  A    between atoms: _264  and  _265
REMARK  116  A    between atoms: _264  and  _267
REMARK  117  A    between atoms: _267  and  _268
REMARK  118  A    between atoms: _274  and  _276
REMARK  119  A    between atoms: _276  and  _277
REMARK  120  A    between atoms: _276  and  _279
REMARK  121  A    between atoms: _279  and  _280
REMARK  122  A    between atoms: _283  and  _285
REMARK  123  A    between atoms: _285  and  _286
REMARK  124  A    between atoms: _285  and  _288
REMARK  125  A    between atoms: _288  and  _289
REMARK  126  A    between atoms: _294  and  _295
REMARK  127  A    between atoms: _297  and  _299
REMARK  128  A    between atoms: _299  and  _300
REMARK  129  A    between atoms: _299  and  _302
REMARK  130  A    between atoms: _302  and  _303
REMARK  131  A    between atoms: _303  and  _304
REMARK  132  A    between atoms: _309  and  _311
REMARK  133  A    between atoms: _311  and  _312
REMARK  134  A    between atoms: _311  and  _314
REMARK  135  A    between atoms: _314  and  _315
REMARK  136  A    between atoms: _315  and  _316
REMARK  137  A    between atoms: _321  and  _323
REMARK  138  A    between atoms: _323  and  _324
REMARK  139  A    between atoms: _327  and  _329
REMARK  140  A    between atoms: _329  and  _330
REMARK  141  A    between atoms: _332  and  _334
REMARK  142  A    between atoms: _334  and  _335
REMARK  143  A    between atoms: _334  and  _337
REMARK  144  A    between atoms: _340  and  _342
REMARK  145  A    between atoms: _342  and  _343
REMARK  146  A    between atoms: _342  and  _345
REMARK  147  A    between atoms: _345  and  _346
REMARK  148  A    between atoms: _349  and  _351
REMARK  149  A    between atoms: _351  and  _352
REMARK  150  A    between atoms: _354  and  _356
REMARK  151  A    between atoms: _356  and  _357
REMARK  152  A    between atoms: _356  and  _359
REMARK  153  A    between atoms: _359  and  _360
REMARK  154  A    between atoms: _360  and  _361
REMARK  155  A    between atoms: _363  and  _365
REMARK  156  A    between atoms: _365  and  _366
REMARK  157  A    between atoms: _365  and  _368
REMARK  158  A    between atoms: _368  and  _369
REMARK  159  A    between atoms: _371  and  _373
REMARK  160  A    between atoms: _373  and  _374
REMARK  161  A    between atoms: _373  and  _376
REMARK  162  A    between atoms: _376  and  _377
REMARK  163  A    between atoms: _377  and  _378
REMARK  164  A    between atoms: _378  and  _379
REMARK  165  A    between atoms: _379  and  _380
REMARK  166  A    between atoms: _384  and  _386
REMARK  167  A    between atoms: _386  and  _387
REMARK  168  A    between atoms: _386  and  _389
REMARK  169  A    between atoms: _389  and  _390
REMARK  170  A    between atoms: _390  and  _391
REMARK  171  A    between atoms: _391  and  _392
REMARK  172  A    between atoms: _401  and  _403
REMARK  173  A    between atoms: _403  and  _404
REMARK  174  A    between atoms: _403  and  _406
REMARK  175  A    between atoms: _406  and  _407
REMARK  176  A    between atoms: _412  and  _413
REMARK  177  A    between atoms: _415  and  _417
REMARK  178  A    between atoms: _417  and  _418
REMARK  179  A    between atoms: _417  and  _420
REMARK  180  A    between atoms: _420  and  _421
REMARK  181  A    between atoms: _426  and  _427
REMARK  182  A    between atoms: _429  and  _431
REMARK  183  A    between atoms: _431  and  _432
REMARK  184  A    between atoms: _431  and  _434
REMARK  185  A    between atoms: _434  and  _435
REMARK  186  A    between atoms: _440  and  _441
REMARK  187  A    between atoms: _443  and  _445
REMARK  188  A    between atoms: _445  and  _446
REMARK  189  A    between atoms: _445  and  _448
REMARK  190  A    between atoms: _448  and  _449
REMARK  191  A    between atoms: _452  and  _454
REMARK  192  A    between atoms: _454  and  _455
REMARK  193  A    between atoms: _454  and  _457
REMARK  194  A    between atoms: _460  and  _462
REMARK  195  A    between atoms: _462  and  _463
REMARK  196  A    between atoms: _462  and  _465
REMARK  197  A    between atoms: _465  and  _466
REMARK  198  A    between atoms: _469  and  _471
REMARK  199  A    between atoms: _471  and  _472
REMARK  200  A    between atoms: _471  and  _474
REMARK  201  A    between atoms: _474  and  _475
REMARK  202  A    between atoms: _477  and  _479
REMARK  203  A    between atoms: _479  and  _480
REMARK  204  A    between atoms: _482  and  _484
REMARK  205  A    between atoms: _484  and  _485
REMARK  206  A    between atoms: _484  and  _487
REMARK  207  A    between atoms: _487  and  _488
REMARK  208  A    between atoms: _490  and  _492
REMARK  209  A    between atoms: _492  and  _493
REMARK  210  A    between atoms: _492  and  _495
REMARK  211  A    between atoms: _495  and  _496
REMARK  212  A    between atoms: _499  and  _501
REMARK  213  A    between atoms: _501  and  _502
REMARK  214  A    between atoms: _501  and  _504
REMARK  215  A    between atoms: _504  and  _505
REMARK  216  A    between atoms: _511  and  _513
REMARK  217  A    between atoms: _513  and  _514
REMARK  218  A    between atoms: _513  and  _516
REMARK  219  A    between atoms: _516  and  _517
REMARK  220  A    between atoms: _520  and  _522
REMARK  221  A    between atoms: _522  and  _523
REMARK  222  A    between atoms: _522  and  _525
REMARK  223  A    between atoms: _525  and  _526
REMARK  224  A    between atoms: _531  and  _533
REMARK  225  A    between atoms: _533  and  _534
REMARK  226  A    between atoms: _533  and  _536
REMARK  227  A    between atoms: _536  and  _537
REMARK  228  A    between atoms: _542  and  _543
REMARK  229  A    between atoms: _545  and  _547
REMARK  230  A    between atoms: _547  and  _548
REMARK  231  A    between atoms: _547  and  _550
REMARK  232  A    between atoms: _550  and  _551
REMARK  233  A    between atoms: _551  and  _552
REMARK  234  A    between atoms: _552  and  _553
REMARK  235  A    between atoms: _553  and  _554
REMARK  236  A    between atoms: _558  and  _560
REMARK  237  A    between atoms: _560  and  _561
REMARK  238  A    between atoms: _560  and  _563
REMARK  239  A    between atoms: _563  and  _564
REMARK  240  A    between atoms: _564  and  _565
REMARK  241  A    between atoms: _568  and  _570
REMARK  242  A    between atoms: _570  and  _571
REMARK  243  A    between atoms: _570  and  _573
REMARK  244  A    between atoms: _573  and  _574
REMARK  245  A    between atoms: _574  and  _575
REMARK  246  A    between atoms: _575  and  _576
REMARK  247  A    between atoms: _576  and  _577
REMARK  248  A    between atoms: _581  and  _583
REMARK  249  A    between atoms: _583  and  _584
REMARK  250  A    between atoms: _583  and  _586
REMARK  251  A    between atoms: _589  and  _591
REMARK  252  A    between atoms: _591  and  _592
REMARK  253  A    between atoms: _591  and  _594
REMARK  254  A    between atoms: _594  and  _595
REMARK  255  A    between atoms: _600  and  _602
REMARK  256  A    between atoms: _602  and  _603
REMARK  257  A    between atoms: _602  and  _605
REMARK  258  A    between atoms: _605  and  _606
REMARK  259  A    between atoms: _606  and  _607
REMARK  260  A    between atoms: _607  and  _608
REMARK  261  A    between atoms: _608  and  _609
REMARK  262  A    between atoms: _614  and  _615
REMARK  263  A    between atoms: _620  and  _622
REMARK  264  A    between atoms: _622  and  _623
REMARK  265  A    between atoms: _622  and  _625
REMARK  266  A    between atoms: _625  and  _626
REMARK  267  A    between atoms: _629  and  _631
REMARK  268  A    between atoms: _631  and  _632
REMARK  269  A    between atoms: _634  and  _636
REMARK  270  A    between atoms: _636  and  _637
REMARK  271  A    between atoms: _636  and  _639
REMARK  272  A    between atoms: _639  and  _640
REMARK                            x       y       z     vdW  Elec       q    Type
REMARK                         _______ _______ _______ _____ _____    ______ ____
ROOT
ATOM      1  O   HOH     1      -2.465 105.388  44.439  0.00  0.00    +0.000 OA
ENDROOT
TORSDOF 0
REMARK  Name = ../refined-set-2016/4zl4/4zl4_pocket.pdb
REMARK  272 active torsions:
REMARK  status: ('A' for Active; 'I' for Inactive)
REMARK    1  A    between atoms: _1  and  _3
REMARK    2  A    between atoms: _3  and  _4
REMARK    3  A    between atoms: _3  and  _6
REMARK    4  A    between atoms: _6  and  _7
REMARK    5  A    between atoms: _10  and  _12
REMARK    6  A    between atoms: _12  and  _13
REMARK    7  A    between atoms: _12  and  _15
REMARK    8  A    between atoms: _15  and  _16
REMARK    9  A    between atoms: _19  and  _21
REMARK   10  A    between atoms: _21  and  _22
REMARK   11  A    between atoms: _21  and  _24
REMARK   12  A    between atoms: _24  and  _25
REMARK   13  A    between atoms: _28  and  _30
REMARK   14  A    between atoms: _30  and  _31
REMARK   15  A    between atoms: _30  and  _33
REMARK   16  A    between atoms: _33  and  _34
REMARK   17  A    between atoms: _34  and  _35
REMARK   18  A    between atoms: _38  and  _40
REMARK   19  A    between atoms: _40  and  _41
REMARK   20  A    between atoms: _40  and  _43
REMARK   21  A    between atoms: _43  and  _44
REMARK   22  A    between atoms: _49  and  _50
REMARK   23  A    between atoms: _52  and  _54
REMARK   24  A    between atoms: _54  and  _55
REMARK   25  A    between atoms: _58  and  _60
REMARK   26  A    between atoms: _60  and  _61
REMARK   27  A    between atoms: _60  and  _63
REMARK   28  A    between atoms: _63  and  _64
REMARK   29  A    between atoms: _69  and  _70
REMARK   30  A    between atoms: _72  and  _74
REMARK   31  A    between atoms: _74  and  _75
REMARK   32  A    between atoms: _74  and  _77
REMARK   33  A    between atoms: _77  and  _78
REMARK   34  A    between atoms: _83  and  _84
REMARK   35  A    between atoms: _86  and  _88
REMARK   36  A    between atoms: _88  and  _89
REMARK   37  A    between atoms: _88  and  _91
REMARK   38  A    between atoms: _91  and  _92
REMARK   39  A    between atoms: _95  and  _97
REMARK   40  A    between atoms: _97  and  _98
REMARK   41  A    between atoms: _97  and  _100
REMARK   42  A    between atoms: _100  and  _101
REMARK   43  A    between atoms: _104  and  _106
REMARK   44  A    between atoms: _106  and  _107
REMARK   45  A    between atoms: _106  and  _109
REMARK   46  A    between atoms: _109  and  _110
REMARK   47  A    between atoms: _113  and  _115
REMARK   48  A    between atoms: _115  and  _116
REMARK   49  A    between atoms: _115  and  _118
REMARK   50  A    between atoms: _118  and  _119
REMARK   51  A    between atoms: _122  and  _124
REMARK   52  A    between atoms: _124  and  _125
REMARK   53  A    between atoms: _127  and  _129
REMARK   54  A    between atoms: _129  and  _130
REMARK   55  A    between atoms: _129  and  _132
REMARK   56  A    between atoms: _132  and  _133
REMARK   57  A    between atoms: _135  and  _137
REMARK   58  A    between atoms: _137  and  _138
REMARK   59  A    between atoms: _137  and  _140
REMARK   60  A    between atoms: _140  and  _141
REMARK   61  A    between atoms: _143  and  _145
REMARK   62  A    between atoms: _145  and  _146
REMARK   63  A    between atoms: _145  and  _148
REMARK   64  A    between atoms: _148  and  _149
REMARK   65  A    between atoms: _151  and  _153
REMARK   66  A    between atoms: _153  and  _154
REMARK   67  A    between atoms: _153  and  _156
REMARK   68  A    between atoms: _156  and  _157
REMARK   69  A    between atoms: _162  and  _164
REMARK   70  A    between atoms: _164  and  _165
REMARK   71  A    between atoms: _164  and  _167
REMARK   72  A    between atoms: _167  and  _168
REMARK   73  A    between atoms: _168  and  _169
REMARK   74  A    between atoms: _174  and  _176
REMARK   75  A    between atoms: _176  and  _177
REMARK   76  A    between atoms: _176  and  _179
REMARK   77  A    between atoms: _179  and  _180
REMARK   78  A    between atoms: _182  and  _184
REMARK   79  A    between atoms: _184  and  _185
REMARK   80  A    between atoms: _184  and  _187
REMARK   81  A    between atoms: _187  and  _188
REMARK   82  A    between atoms: _193  and  _194
REMARK   83  A    between atoms: _196  and  _198
REMARK   84  A    between atoms: _198  and  _199
REMARK   85  A    between atoms: _198  and  _201
REMARK   86  A    between atoms: _203  and  _205
REMARK   87  A    between atoms: _205  and  _206
REMARK   88  A    between atoms: _205  and  _208
REMARK   89  A    between atoms: _208  and  _209
REMARK   90  A    between atoms: _209  and  _210
REMARK   91  A    between atoms: _213  and  _215
REMARK   92  A    between atoms: _215  and  _216
REMARK   93  A    between atoms: _218  and  _220
REMARK   94  A    between atoms: _220  and  _221
REMARK   95  A    between atoms: _220  and  _223
REMARK   96  A    between atoms: _223  and  _224
REMARK   97  A    between atoms: _226  and  _228
REMARK   98  A    between atoms: _228  and  _229
REMARK   99  A    between atoms: _228  and  _231
REMARK  100  A    between atoms: _231  and  _232
REMARK  101  A    between atoms: _235  and  _237
REMARK  102  A    between atoms: _237  and  _238
REMARK  103  A    between atoms: _237  and  _240
REMARK  104  A    between atoms: _240  and  _241
REMARK  105  A    between atoms: _241  and  _242
REMARK  106  A    between atoms: _245  and  _247
REMARK  107  A    between atoms: _247  and  _248
REMARK  108  A    between atoms: _247  and  _250
REMARK  109  A    between atoms: _250  and  _251
REMARK  110  A    between atoms: _253  and  _255
REMARK  111  A    between atoms: _255  and  _256
REMARK  112  A    between atoms: _255  and  _258
REMARK  113  A    between atoms: _258  and  _259
REMARK  114  A    between atoms: _262  and  _264
REMARK  115  A    between atoms: _264  and  _265
REMARK  116  A    between atoms: _264  and  _267
REMARK  117  A    between atoms: _267  and  _268
REMARK  118  A    between atoms: _274  and  _276
REMARK  119  A    between atoms: _276  and  _277
REMARK  120  A    between atoms: _276  and  _279
REMARK  121  A    between atoms: _279  and  _280
REMARK  122  A    between atoms: _283  and  _285
REMARK  123  A    between atoms: _285  and  _286
REMARK  124  A    between atoms: _285  and  _288
REMARK  125  A    between atoms: _288  and  _289
REMARK  126  A    between atoms: _294  and  _295
REMARK  127  A    between atoms: _297  and  _299
REMARK  128  A    between atoms: _299  and  _300
REMARK  129  A    between atoms: _299  and  _302
REMARK  130  A    between atoms: _302  and  _303
REMARK  131  A    between atoms: _303  and  _304
REMARK  132  A    between atoms: _309  and  _311
REMARK  133  A    between atoms: _311  and  _312
REMARK  134  A    between atoms: _311  and  _314
REMARK  135  A    between atoms: _314  and  _315
REMARK  136  A    between atoms: _315  and  _316
REMARK  137  A    between atoms: _321  and  _323
REMARK  138  A    between atoms: _323  and  _324
REMARK  139  A    between atoms: _327  and  _329
REMARK  140  A    between atoms: _329  and  _330
REMARK  141  A    between atoms: _332  and  _334
REMARK  142  A    between atoms: _334  and  _335
REMARK  143  A    between atoms: _334  and  _337
REMARK  144  A    between atoms: _340  and  _342
REMARK  145  A    between atoms: _342  and  _343
REMARK  146  A    between atoms: _342  and  _345
REMARK  147  A    between atoms: _345  and  _346
REMARK  148  A    between atoms: _349  and  _351
REMARK  149  A    between atoms: _351  and  _352
REMARK  150  A    between atoms: _354  and  _356
REMARK  151  A    between atoms: _356  and  _357
REMARK  152  A    between atoms: _356  and  _359
REMARK  153  A    between atoms: _359  and  _360
REMARK  154  A    between atoms: _360  and  _361
REMARK  155  A    between atoms: _363  and  _365
REMARK  156  A    between atoms: _365  and  _366
REMARK  157  A    between atoms: _365  and  _368
REMARK  158  A    between atoms: _368  and  _369
REMARK  159  A    between atoms: _371  and  _373
REMARK  160  A    between atoms: _373  and  _374
REMARK  161  A    between atoms: _373  and  _376
REMARK  162  A    between atoms: _376  and  _377
REMARK  163  A    between atoms: _377  and  _378
REMARK  164  A    between atoms: _378  and  _379
REMARK  165  A    between atoms: _379  and  _380
REMARK  166  A    between atoms: _384  and  _386
REMARK  167  A    between atoms: _386  and  _387
REMARK  168  A    between atoms: _386  and  _389
REMARK  169  A    between atoms: _389  and  _390
REMARK  170  A    between atoms: _390  and  _391
REMARK  171  A    between atoms: _391  and  _392
REMARK  172  A    between atoms: _401  and  _403
REMARK  173  A    between atoms: _403  and  _404
REMARK  174  A    between atoms: _403  and  _406
REMARK  175  A    between atoms: _406  and  _407
REMARK  176  A    between atoms: _412  and  _413
REMARK  177  A    between atoms: _415  and  _417
REMARK  178  A    between atoms: _417  and  _418
REMARK  179  A    between atoms: _417  and  _420
REMARK  180  A    between atoms: _420  and  _421
REMARK  181  A    between atoms: _426  and  _427
REMARK  182  A    between atoms: _429  and  _431
REMARK  183  A    between atoms: _431  and  _432
REMARK  184  A    between atoms: _431  and  _434
REMARK  185  A    between atoms: _434  and  _435
REMARK  186  A    between atoms: _440  and  _441
REMARK  187  A    between atoms: _443  and  _445
REMARK  188  A    between atoms: _445  and  _446
REMARK  189  A    between atoms: _445  and  _448
REMARK  190  A    between atoms: _448  and  _449
REMARK  191  A    between atoms: _452  and  _454
REMARK  192  A    between atoms: _454  and  _455
REMARK  193  A    between atoms: _454  and  _457
REMARK  194  A    between atoms: _460  and  _462
REMARK  195  A    between atoms: _462  and  _463
REMARK  196  A    between atoms: _462  and  _465
REMARK  197  A    between atoms: _465  and  _466
REMARK  198  A    between atoms: _469  and  _471
REMARK  199  A    between atoms: _471  and  _472
REMARK  200  A    between atoms: _471  and  _474
REMARK  201  A    between atoms: _474  and  _475
REMARK  202  A    between atoms: _477  and  _479
REMARK  203  A    between atoms: _479  and  _480
REMARK  204  A    between atoms: _482  and  _484
REMARK  205  A    between atoms: _484  and  _485
REMARK  206  A    between atoms: _484  and  _487
REMARK  207  A    between atoms: _487  and  _488
REMARK  208  A    between atoms: _490  and  _492
REMARK  209  A    between atoms: _492  and  _493
REMARK  210  A    between atoms: _492  and  _495
REMARK  211  A    between atoms: _495  and  _496
REMARK  212  A    between atoms: _499  and  _501
REMARK  213  A    between atoms: _501  and  _502
REMARK  214  A    between atoms: _501  and  _504
REMARK  215  A    between atoms: _504  and  _505
REMARK  216  A    between atoms: _511  and  _513
REMARK  217  A    between atoms: _513  and  _514
REMARK  218  A    between atoms: _513  and  _516
REMARK  219  A    between atoms: _516  and  _517
REMARK  220  A    between atoms: _520  and  _522
REMARK  221  A    between atoms: _522  and  _523
REMARK  222  A    between atoms: _522  and  _525
REMARK  223  A    between atoms: _525  and  _526
REMARK  224  A    between atoms: _531  and  _533
REMARK  225  A    between atoms: _533  and  _534
REMARK  226  A    between atoms: _533  and  _536
REMARK  227  A    between atoms: _536  and  _537
REMARK  228  A    between atoms: _542  and  _543
REMARK  229  A    between atoms: _545  and  _547
REMARK  230  A    between atoms: _547  and  _548
REMARK  231  A    between atoms: _547  and  _550
REMARK  232  A    between atoms: _550  and  _551
REMARK  233  A    between atoms: _551  and  _552
REMARK  234  A    between atoms: _552  and  _553
REMARK  235  A    between atoms: _553  and  _554
REMARK  236  A    between atoms: _558  and  _560
REMARK  237  A    between atoms: _560  and  _561
REMARK  238  A    between atoms: _560  and  _563
REMARK  239  A    between atoms: _563  and  _564
REMARK  240  A    between atoms: _564  and  _565
REMARK  241  A    between atoms: _568  and  _570
REMARK  242  A    between atoms: _570  and  _571
REMARK  243  A    between atoms: _570  and  _573
REMARK  244  A    between atoms: _573  and  _574
REMARK  245  A    between atoms: _574  and  _575
REMARK  246  A    between atoms: _575  and  _576
REMARK  247  A    between atoms: _576  and  _577
REMARK  248  A    between atoms: _581  and  _583
REMARK  249  A    between atoms: _583  and  _584
REMARK  250  A    between atoms: _583  and  _586
REMARK  251  A    between atoms: _589  and  _591
REMARK  252  A    between atoms: _591  and  _592
REMARK  253  A    between atoms: _591  and  _594
REMARK  254  A    between atoms: _594  and  _595
REMARK  255  A    between atoms: _600  and  _602
REMARK  256  A    between atoms: _602  and  _603
REMARK  257  A    between atoms: _602  and  _605
REMARK  258  A    between atoms: _605  and  _606
REMARK  259  A    between atoms: _606  and  _607
REMARK  260  A    between atoms: _607  and  _608
REMARK  261  A    between atoms: _608  and  _609
REMARK  262  A    between atoms: _614  and  _615
REMARK  263  A    between atoms: _620  and  _622
REMARK  264  A    between atoms: _622  and  _623
REMARK  265  A    between atoms: _622  and  _625
REMARK  266  A    between atoms: _625  and  _626
REMARK  267  A    between atoms: _629  and  _631
REMARK  268  A    between atoms: _631  and  _632
REMARK  269  A    between atoms: _634  and  _636
REMARK  270  A    between atoms: _636  and  _637
REMARK  271  A    between atoms: _636  and  _639
REMARK  272  A    between atoms: _639  and  _640
REMARK                            x       y       z     vdW  Elec       q    Type
REMARK                         _______ _______ _______ _____ _____    ______ ____
ROOT
ATOM      1  O   HOH     1     -11.912  89.426  42.878  0.00  0.00    +0.000 OA
ENDROOT
TORSDOF 0
REMARK  Name = ../refined-set-2016/4zl4/4zl4_pocket.pdb
REMARK  272 active torsions:
REMARK  status: ('A' for Active; 'I' for Inactive)
REMARK    1  A    between atoms: _1  and  _3
REMARK    2  A    between atoms: _3  and  _4
REMARK    3  A    between atoms: _3  and  _6
REMARK    4  A    between atoms: _6  and  _7
REMARK    5  A    between atoms: _10  and  _12
REMARK    6  A    between atoms: _12  and  _13
REMARK    7  A    between atoms: _12  and  _15
REMARK    8  A    between atoms: _15  and  _16
REMARK    9  A    between atoms: _19  and  _21
REMARK   10  A    between atoms: _21  and  _22
REMARK   11  A    between atoms: _21  and  _24
REMARK   12  A    between atoms: _24  and  _25
REMARK   13  A    between atoms: _28  and  _30
REMARK   14  A    between atoms: _30  and  _31
REMARK   15  A    between atoms: _30  and  _33
REMARK   16  A    between atoms: _33  and  _34
REMARK   17  A    between atoms: _34  and  _35
REMARK   18  A    between atoms: _38  and  _40
REMARK   19  A    between atoms: _40  and  _41
REMARK   20  A    between atoms: _40  and  _43
REMARK   21  A    between atoms: _43  and  _44
REMARK   22  A    between atoms: _49  and  _50
REMARK   23  A    between atoms: _52  and  _54
REMARK   24  A    between atoms: _54  and  _55
REMARK   25  A    between atoms: _58  and  _60
REMARK   26  A    between atoms: _60  and  _61
REMARK   27  A    between atoms: _60  and  _63
REMARK   28  A    between atoms: _63  and  _64
REMARK   29  A    between atoms: _69  and  _70
REMARK   30  A    between atoms: _72  and  _74
REMARK   31  A    between atoms: _74  and  _75
REMARK   32  A    between atoms: _74  and  _77
REMARK   33  A    between atoms: _77  and  _78
REMARK   34  A    between atoms: _83  and  _84
REMARK   35  A    between atoms: _86  and  _88
REMARK   36  A    between atoms: _88  and  _89
REMARK   37  A    between atoms: _88  and  _91
REMARK   38  A    between atoms: _91  and  _92
REMARK   39  A    between atoms: _95  and  _97
REMARK   40  A    between atoms: _97  and  _98
REMARK   41  A    between atoms: _97  and  _100
REMARK   42  A    between atoms: _100  and  _101
REMARK   43  A    between atoms: _104  and  _106
REMARK   44  A    between atoms: _106  and  _107
REMARK   45  A    between atoms: _106  and  _109
REMARK   46  A    between atoms: _109  and  _110
REMARK   47  A    between atoms: _113  and  _115
REMARK   48  A    between atoms: _115  and  _116
REMARK   49  A    between atoms: _115  and  _118
REMARK   50  A    between atoms: _118  and  _119
REMARK   51  A    between atoms: _122  and  _124
REMARK   52  A    between atoms: _124  and  _125
REMARK   53  A    between atoms: _127  and  _129
REMARK   54  A    between atoms: _129  and  _130
REMARK   55  A    between atoms: _129  and  _132
REMARK   56  A    between atoms: _132  and  _133
REMARK   57  A    between atoms: _135  and  _137
REMARK   58  A    between atoms: _137  and  _138
REMARK   59  A    between atoms: _137  and  _140
REMARK   60  A    between atoms: _140  and  _141
REMARK   61  A    between atoms: _143  and  _145
REMARK   62  A    between atoms: _145  and  _146
REMARK   63  A    between atoms: _145  and  _148
REMARK   64  A    between atoms: _148  and  _149
REMARK   65  A    between atoms: _151  and  _153
REMARK   66  A    between atoms: _153  and  _154
REMARK   67  A    between atoms: _153  and  _156
REMARK   68  A    between atoms: _156  and  _157
REMARK   69  A    between atoms: _162  and  _164
REMARK   70  A    between atoms: _164  and  _165
REMARK   71  A    between atoms: _164  and  _167
REMARK   72  A    between atoms: _167  and  _168
REMARK   73  A    between atoms: _168  and  _169
REMARK   74  A    between atoms: _174  and  _176
REMARK   75  A    between atoms: _176  and  _177
REMARK   76  A    between atoms: _176  and  _179
REMARK   77  A    between atoms: _179  and  _180
REMARK   78  A    between atoms: _182  and  _184
REMARK   79  A    between atoms: _184  and  _185
REMARK   80  A    between atoms: _184  and  _187
REMARK   81  A    between atoms: _187  and  _188
REMARK   82  A    between atoms: _193  and  _194
REMARK   83  A    between atoms: _196  and  _198
REMARK   84  A    between atoms: _198  and  _199
REMARK   85  A    between atoms: _198  and  _201
REMARK   86  A    between atoms: _203  and  _205
REMARK   87  A    between atoms: _205  and  _206
REMARK   88  A    between atoms: _205  and  _208
REMARK   89  A    between atoms: _208  and  _209
REMARK   90  A    between atoms: _209  and  _210
REMARK   91  A    between atoms: _213  and  _215
REMARK   92  A    between atoms: _215  and  _216
REMARK   93  A    between atoms: _218  and  _220
REMARK   94  A    between atoms: _220  and  _221
REMARK   95  A    between atoms: _220  and  _223
REMARK   96  A    between atoms: _223  and  _224
REMARK   97  A    between atoms: _226  and  _228
REMARK   98  A    between atoms: _228  and  _229
REMARK   99  A    between atoms: _228  and  _231
REMARK  100  A    between atoms: _231  and  _232
REMARK  101  A    between atoms: _235  and  _237
REMARK  102  A    between atoms: _237  and  _238
REMARK  103  A    between atoms: _237  and  _240
REMARK  104  A    between atoms: _240  and  _241
REMARK  105  A    between atoms: _241  and  _242
REMARK  106  A    between atoms: _245  and  _247
REMARK  107  A    between atoms: _247  and  _248
REMARK  108  A    between atoms: _247  and  _250
REMARK  109  A    between atoms: _250  and  _251
REMARK  110  A    between atoms: _253  and  _255
REMARK  111  A    between atoms: _255  and  _256
REMARK  112  A    between atoms: _255  and  _258
REMARK  113  A    between atoms: _258  and  _259
REMARK  114  A    between atoms: _262  and  _264
REMARK  115  A    between atoms: _264  and  _265
REMARK  116  A    between atoms: _264  and  _267
REMARK  117  A    between atoms: _267  and  _268
REMARK  118  A    between atoms: _274  and  _276
REMARK  119  A    between atoms: _276  and  _277
REMARK  120  A    between atoms: _276  and  _279
REMARK  121  A    between atoms: _279  and  _280
REMARK  122  A    between atoms: _283  and  _285
REMARK  123  A    between atoms: _285  and  _286
REMARK  124  A    between atoms: _285  and  _288
REMARK  125  A    between atoms: _288  and  _289
REMARK  126  A    between atoms: _294  and  _295
REMARK  127  A    between atoms: _297  and  _299
REMARK  128  A    between atoms: _299  and  _300
REMARK  129  A    between atoms: _299  and  _302
REMARK  130  A    between atoms: _302  and  _303
REMARK  131  A    between atoms: _303  and  _304
REMARK  132  A    between atoms: _309  and  _311
REMARK  133  A    between atoms: _311  and  _312
REMARK  134  A    between atoms: _311  and  _314
REMARK  135  A    between atoms: _314  and  _315
REMARK  136  A    between atoms: _315  and  _316
REMARK  137  A    between atoms: _321  and  _323
REMARK  138  A    between atoms: _323  and  _324
REMARK  139  A    between atoms: _327  and  _329
REMARK  140  A    between atoms: _329  and  _330
REMARK  141  A    between atoms: _332  and  _334
REMARK  142  A    between atoms: _334  and  _335
REMARK  143  A    between atoms: _334  and  _337
REMARK  144  A    between atoms: _340  and  _342
REMARK  145  A    between atoms: _342  and  _343
REMARK  146  A    between atoms: _342  and  _345
REMARK  147  A    between atoms: _345  and  _346
REMARK  148  A    between atoms: _349  and  _351
REMARK  149  A    between atoms: _351  and  _352
REMARK  150  A    between atoms: _354  and  _356
REMARK  151  A    between atoms: _356  and  _357
REMARK  152  A    between atoms: _356  and  _359
REMARK  153  A    between atoms: _359  and  _360
REMARK  154  A    between atoms: _360  and  _361
REMARK  155  A    between atoms: _363  and  _365
REMARK  156  A    between atoms: _365  and  _366
REMARK  157  A    between atoms: _365  and  _368
REMARK  158  A    between atoms: _368  and  _369
REMARK  159  A    between atoms: _371  and  _373
REMARK  160  A    between atoms: _373  and  _374
REMARK  161  A    between atoms: _373  and  _376
REMARK  162  A    between atoms: _376  and  _377
REMARK  163  A    between atoms: _377  and  _378
REMARK  164  A    between atoms: _378  and  _379
REMARK  165  A    between atoms: _379  and  _380
REMARK  166  A    between atoms: _384  and  _386
REMARK  167  A    between atoms: _386  and  _387
REMARK  168  A    between atoms: _386  and  _389
REMARK  169  A    between atoms: _389  and  _390
REMARK  170  A    between atoms: _390  and  _391
REMARK  171  A    between atoms: _391  and  _392
REMARK  172  A    between atoms: _401  and  _403
REMARK  173  A    between atoms: _403  and  _404
REMARK  174  A    between atoms: _403  and  _406
REMARK  175  A    between atoms: _406  and  _407
REMARK  176  A    between atoms: _412  and  _413
REMARK  177  A    between atoms: _415  and  _417
REMARK  178  A    between atoms: _417  and  _418
REMARK  179  A    between atoms: _417  and  _420
REMARK  180  A    between atoms: _420  and  _421
REMARK  181  A    between atoms: _426  and  _427
REMARK  182  A    between atoms: _429  and  _431
REMARK  183  A    between atoms: _431  and  _432
REMARK  184  A    between atoms: _431  and  _434
REMARK  185  A    between atoms: _434  and  _435
REMARK  186  A    between atoms: _440  and  _441
REMARK  187  A    between atoms: _443  and  _445
REMARK  188  A    between atoms: _445  and  _446
REMARK  189  A    between atoms: _445  and  _448
REMARK  190  A    between atoms: _448  and  _449
REMARK  191  A    between atoms: _452  and  _454
REMARK  192  A    between atoms: _454  and  _455
REMARK  193  A    between atoms: _454  and  _457
REMARK  194  A    between atoms: _460  and  _462
REMARK  195  A    between atoms: _462  and  _463
REMARK  196  A    between atoms: _462  and  _465
REMARK  197  A    between atoms: _465  and  _466
REMARK  198  A    between atoms: _469  and  _471
REMARK  199  A    between atoms: _471  and  _472
REMARK  200  A    between atoms: _471  and  _474
REMARK  201  A    between atoms: _474  and  _475
REMARK  202  A    between atoms: _477  and  _479
REMARK  203  A    between atoms: _479  and  _480
REMARK  204  A    between atoms: _482  and  _484
REMARK  205  A    between atoms: _484  and  _485
REMARK  206  A    between atoms: _484  and  _487
REMARK  207  A    between atoms: _487  and  _488
REMARK  208  A    between atoms: _490  and  _492
REMARK  209  A    between atoms: _492  and  _493
REMARK  210  A    between atoms: _492  and  _495
REMARK  211  A    between atoms: _495  and  _496
REMARK  212  A    between atoms: _499  and  _501
REMARK  213  A    between atoms: _501  and  _502
REMARK  214  A    between atoms: _501  and  _504
REMARK  215  A    between atoms: _504  and  _505
REMARK  216  A    between atoms: _511  and  _513
REMARK  217  A    between atoms: _513  and  _514
REMARK  218  A    between atoms: _513  and  _516
REMARK  219  A    between atoms: _516  and  _517
REMARK  220  A    between atoms: _520  and  _522
REMARK  221  A    between atoms: _522  and  _523
REMARK  222  A    between atoms: _522  and  _525
REMARK  223  A    between atoms: _525  and  _526
REMARK  224  A    between atoms: _531  and  _533
REMARK  225  A    between atoms: _533  and  _534
REMARK  226  A    between atoms: _533  and  _536
REMARK  227  A    between atoms: _536  and  _537
REMARK  228  A    between atoms: _542  and  _543
REMARK  229  A    between atoms: _545  and  _547
REMARK  230  A    between atoms: _547  and  _548
REMARK  231  A    between atoms: _547  and  _550
REMARK  232  A    between atoms: _550  and  _551
REMARK  233  A    between atoms: _551  and  _552
REMARK  234  A    between atoms: _552  and  _553
REMARK  235  A    between atoms: _553  and  _554
REMARK  236  A    between atoms: _558  and  _560
REMARK  237  A    between atoms: _560  and  _561
REMARK  238  A    between atoms: _560  and  _563
REMARK  239  A    between atoms: _563  and  _564
REMARK  240  A    between atoms: _564  and  _565
REMARK  241  A    between atoms: _568  and  _570
REMARK  242  A    between atoms: _570  and  _571
REMARK  243  A    between atoms: _570  and  _573
REMARK  244  A    between atoms: _573  and  _574
REMARK  245  A    between atoms: _574  and  _575
REMARK  246  A    between atoms: _575  and  _576
REMARK  247  A    between atoms: _576  and  _577
REMARK  248  A    between atoms: _581  and  _583
REMARK  249  A    between atoms: _583  and  _584
REMARK  250  A    between atoms: _583  and  _586
REMARK  251  A    between atoms: _589  and  _591
REMARK  252  A    between atoms: _591  and  _592
REMARK  253  A    between atoms: _591  and  _594
REMARK  254  A    between atoms: _594  and  _595
REMARK  255  A    between atoms: _600  and  _602
REMARK  256  A    between atoms: _602  and  _603
REMARK  257  A    between atoms: _602  and  _605
REMARK  258  A    between atoms: _605  and  _606
REMARK  259  A    between atoms: _606  and  _607
REMARK  260  A    between atoms: _607  and  _608
REMARK  261  A    between atoms: _608  and  _609
REMARK  262  A    between atoms: _614  and  _615
REMARK  263  A    between atoms: _620  and  _622
REMARK  264  A    between atoms: _622  and  _623
REMARK  265  A    between atoms: _622  and  _625
REMARK  266  A    between atoms: _625  and  _626
REMARK  267  A    between atoms: _629  and  _631
REMARK  268  A    between atoms: _631  and  _632
REMARK  269  A    between atoms: _634  and  _636
REMARK  270  A    between atoms: _636  and  _637
REMARK  271  A    between atoms: _636  and  _639
REMARK  272  A    between atoms: _639  and  _640
REMARK                            x       y       z     vdW  Elec       q    Type
REMARK                         _______ _______ _______ _____ _____    ______ ____
ROOT
ATOM      1  O   HOH     1      -9.506  94.991  55.544  0.00  0.00    +0.000 OA
ENDROOT
TORSDOF 0
REMARK  Name = ../refined-set-2016/4zl4/4zl4_pocket.pdb
REMARK  272 active torsions:
REMARK  status: ('A' for Active; 'I' for Inactive)
REMARK    1  A    between atoms: _1  and  _3
REMARK    2  A    between atoms: _3  and  _4
REMARK    3  A    between atoms: _3  and  _6
REMARK    4  A    between atoms: _6  and  _7
REMARK    5  A    between atoms: _10  and  _12
REMARK    6  A    between atoms: _12  and  _13
REMARK    7  A    between atoms: _12  and  _15
REMARK    8  A    between atoms: _15  and  _16
REMARK    9  A    between atoms: _19  and  _21
REMARK   10  A    between atoms: _21  and  _22
REMARK   11  A    between atoms: _21  and  _24
REMARK   12  A    between atoms: _24  and  _25
REMARK   13  A    between atoms: _28  and  _30
REMARK   14  A    between atoms: _30  and  _31
REMARK   15  A    between atoms: _30  and  _33
REMARK   16  A    between atoms: _33  and  _34
REMARK   17  A    between atoms: _34  and  _35
REMARK   18  A    between atoms: _38  and  _40
REMARK   19  A    between atoms: _40  and  _41
REMARK   20  A    between atoms: _40  and  _43
REMARK   21  A    between atoms: _43  and  _44
REMARK   22  A    between atoms: _49  and  _50
REMARK   23  A    between atoms: _52  and  _54
REMARK   24  A    between atoms: _54  and  _55
REMARK   25  A    between atoms: _58  and  _60
REMARK   26  A    between atoms: _60  and  _61
REMARK   27  A    between atoms: _60  and  _63
REMARK   28  A    between atoms: _63  and  _64
REMARK   29  A    between atoms: _69  and  _70
REMARK   30  A    between atoms: _72  and  _74
REMARK   31  A    between atoms: _74  and  _75
REMARK   32  A    between atoms: _74  and  _77
REMARK   33  A    between atoms: _77  and  _78
REMARK   34  A    between atoms: _83  and  _84
REMARK   35  A    between atoms: _86  and  _88
REMARK   36  A    between atoms: _88  and  _89
REMARK   37  A    between atoms: _88  and  _91
REMARK   38  A    between atoms: _91  and  _92
REMARK   39  A    between atoms: _95  and  _97
REMARK   40  A    between atoms: _97  and  _98
REMARK   41  A    between atoms: _97  and  _100
REMARK   42  A    between atoms: _100  and  _101
REMARK   43  A    between atoms: _104  and  _106
REMARK   44  A    between atoms: _106  and  _107
REMARK   45  A    between atoms: _106  and  _109
REMARK   46  A    between atoms: _109  and  _110
REMARK   47  A    between atoms: _113  and  _115
REMARK   48  A    between atoms: _115  and  _116
REMARK   49  A    between atoms: _115  and  _118
REMARK   50  A    between atoms: _118  and  _119
REMARK   51  A    between atoms: _122  and  _124
REMARK   52  A    between atoms: _124  and  _125
REMARK   53  A    between atoms: _127  and  _129
REMARK   54  A    between atoms: _129  and  _130
REMARK   55  A    between atoms: _129  and  _132
REMARK   56  A    between atoms: _132  and  _133
REMARK   57  A    between atoms: _135  and  _137
REMARK   58  A    between atoms: _137  and  _138
REMARK   59  A    between atoms: _137  and  _140
REMARK   60  A    between atoms: _140  and  _141
REMARK   61  A    between atoms: _143  and  _145
REMARK   62  A    between atoms: _145  and  _146
REMARK   63  A    between atoms: _145  and  _148
REMARK   64  A    between atoms: _148  and  _149
REMARK   65  A    between atoms: _151  and  _153
REMARK   66  A    between atoms: _153  and  _154
REMARK   67  A    between atoms: _153  and  _156
REMARK   68  A    between atoms: _156  and  _157
REMARK   69  A    between atoms: _162  and  _164
REMARK   70  A    between atoms: _164  and  _165
REMARK   71  A    between atoms: _164  and  _167
REMARK   72  A    between atoms: _167  and  _168
REMARK   73  A    between atoms: _168  and  _169
REMARK   74  A    between atoms: _174  and  _176
REMARK   75  A    between atoms: _176  and  _177
REMARK   76  A    between atoms: _176  and  _179
REMARK   77  A    between atoms: _179  and  _180
REMARK   78  A    between atoms: _182  and  _184
REMARK   79  A    between atoms: _184  and  _185
REMARK   80  A    between atoms: _184  and  _187
REMARK   81  A    between atoms: _187  and  _188
REMARK   82  A    between atoms: _193  and  _194
REMARK   83  A    between atoms: _196  and  _198
REMARK   84  A    between atoms: _198  and  _199
REMARK   85  A    between atoms: _198  and  _201
REMARK   86  A    between atoms: _203  and  _205
REMARK   87  A    between atoms: _205  and  _206
REMARK   88  A    between atoms: _205  and  _208
REMARK   89  A    between atoms: _208  and  _209
REMARK   90  A    between atoms: _209  and  _210
REMARK   91  A    between atoms: _213  and  _215
REMARK   92  A    between atoms: _215  and  _216
REMARK   93  A    between atoms: _218  and  _220
REMARK   94  A    between atoms: _220  and  _221
REMARK   95  A    between atoms: _220  and  _223
REMARK   96  A    between atoms: _223  and  _224
REMARK   97  A    between atoms: _226  and  _228
REMARK   98  A    between atoms: _228  and  _229
REMARK   99  A    between atoms: _228  and  _231
REMARK  100  A    between atoms: _231  and  _232
REMARK  101  A    between atoms: _235  and  _237
REMARK  102  A    between atoms: _237  and  _238
REMARK  103  A    between atoms: _237  and  _240
REMARK  104  A    between atoms: _240  and  _241
REMARK  105  A    between atoms: _241  and  _242
REMARK  106  A    between atoms: _245  and  _247
REMARK  107  A    between atoms: _247  and  _248
REMARK  108  A    between atoms: _247  and  _250
REMARK  109  A    between atoms: _250  and  _251
REMARK  110  A    between atoms: _253  and  _255
REMARK  111  A    between atoms: _255  and  _256
REMARK  112  A    between atoms: _255  and  _258
REMARK  113  A    between atoms: _258  and  _259
REMARK  114  A    between atoms: _262  and  _264
REMARK  115  A    between atoms: _264  and  _265
REMARK  116  A    between atoms: _264  and  _267
REMARK  117  A    between atoms: _267  and  _268
REMARK  118  A    between atoms: _274  and  _276
REMARK  119  A    between atoms: _276  and  _277
REMARK  120  A    between atoms: _276  and  _279
REMARK  121  A    between atoms: _279  and  _280
REMARK  122  A    between atoms: _283  and  _285
REMARK  123  A    between atoms: _285  and  _286
REMARK  124  A    between atoms: _285  and  _288
REMARK  125  A    between atoms: _288  and  _289
REMARK  126  A    between atoms: _294  and  _295
REMARK  127  A    between atoms: _297  and  _299
REMARK  128  A    between atoms: _299  and  _300
REMARK  129  A    between atoms: _299  and  _302
REMARK  130  A    between atoms: _302  and  _303
REMARK  131  A    between atoms: _303  and  _304
REMARK  132  A    between atoms: _309  and  _311
REMARK  133  A    between atoms: _311  and  _312
REMARK  134  A    between atoms: _311  and  _314
REMARK  135  A    between atoms: _314  and  _315
REMARK  136  A    between atoms: _315  and  _316
REMARK  137  A    between atoms: _321  and  _323
REMARK  138  A    between atoms: _323  and  _324
REMARK  139  A    between atoms: _327  and  _329
REMARK  140  A    between atoms: _329  and  _330
REMARK  141  A    between atoms: _332  and  _334
REMARK  142  A    between atoms: _334  and  _335
REMARK  143  A    between atoms: _334  and  _337
REMARK  144  A    between atoms: _340  and  _342
REMARK  145  A    between atoms: _342  and  _343
REMARK  146  A    between atoms: _342  and  _345
REMARK  147  A    between atoms: _345  and  _346
REMARK  148  A    between atoms: _349  and  _351
REMARK  149  A    between atoms: _351  and  _352
REMARK  150  A    between atoms: _354  and  _356
REMARK  151  A    between atoms: _356  and  _357
REMARK  152  A    between atoms: _356  and  _359
REMARK  153  A    between atoms: _359  and  _360
REMARK  154  A    between atoms: _360  and  _361
REMARK  155  A    between atoms: _363  and  _365
REMARK  156  A    between atoms: _365  and  _366
REMARK  157  A    between atoms: _365  and  _368
REMARK  158  A    between atoms: _368  and  _369
REMARK  159  A    between atoms: _371  and  _373
REMARK  160  A    between atoms: _373  and  _374
REMARK  161  A    between atoms: _373  and  _376
REMARK  162  A    between atoms: _376  and  _377
REMARK  163  A    between atoms: _377  and  _378
REMARK  164  A    between atoms: _378  and  _379
REMARK  165  A    between atoms: _379  and  _380
REMARK  166  A    between atoms: _384  and  _386
REMARK  167  A    between atoms: _386  and  _387
REMARK  168  A    between atoms: _386  and  _389
REMARK  169  A    between atoms: _389  and  _390
REMARK  170  A    between atoms: _390  and  _391
REMARK  171  A    between atoms: _391  and  _392
REMARK  172  A    between atoms: _401  and  _403
REMARK  173  A    between atoms: _403  and  _404
REMARK  174  A    between atoms: _403  and  _406
REMARK  175  A    between atoms: _406  and  _407
REMARK  176  A    between atoms: _412  and  _413
REMARK  177  A    between atoms: _415  and  _417
REMARK  178  A    between atoms: _417  and  _418
REMARK  179  A    between atoms: _417  and  _420
REMARK  180  A    between atoms: _420  and  _421
REMARK  181  A    between atoms: _426  and  _427
REMARK  182  A    between atoms: _429  and  _431
REMARK  183  A    between atoms: _431  and  _432
REMARK  184  A    between atoms: _431  and  _434
REMARK  185  A    between atoms: _434  and  _435
REMARK  186  A    between atoms: _440  and  _441
REMARK  187  A    between atoms: _443  and  _445
REMARK  188  A    between atoms: _445  and  _446
REMARK  189  A    between atoms: _445  and  _448
REMARK  190  A    between atoms: _448  and  _449
REMARK  191  A    between atoms: _452  and  _454
REMARK  192  A    between atoms: _454  and  _455
REMARK  193  A    between atoms: _454  and  _457
REMARK  194  A    between atoms: _460  and  _462
REMARK  195  A    between atoms: _462  and  _463
REMARK  196  A    between atoms: _462  and  _465
REMARK  197  A    between atoms: _465  and  _466
REMARK  198  A    between atoms: _469  and  _471
REMARK  199  A    between atoms: _471  and  _472
REMARK  200  A    between atoms: _471  and  _474
REMARK  201  A    between atoms: _474  and  _475
REMARK  202  A    between atoms: _477  and  _479
REMARK  203  A    between atoms: _479  and  _480
REMARK  204  A    between atoms: _482  and  _484
REMARK  205  A    between atoms: _484  and  _485
REMARK  206  A    between atoms: _484  and  _487
REMARK  207  A    between atoms: _487  and  _488
REMARK  208  A    between atoms: _490  and  _492
REMARK  209  A    between atoms: _492  and  _493
REMARK  210  A    between atoms: _492  and  _495
REMARK  211  A    between atoms: _495  and  _496
REMARK  212  A    between atoms: _499  and  _501
REMARK  213  A    between atoms: _501  and  _502
REMARK  214  A    between atoms: _501  and  _504
REMARK  215  A    between atoms: _504  and  _505
REMARK  216  A    between atoms: _511  and  _513
REMARK  217  A    between atoms: _513  and  _514
REMARK  218  A    between atoms: _513  and  _516
REMARK  219  A    between atoms: _516  and  _517
REMARK  220  A    between atoms: _520  and  _522
REMARK  221  A    between atoms: _522  and  _523
REMARK  222  A    between atoms: _522  and  _525
REMARK  223  A    between atoms: _525  and  _526
REMARK  224  A    between atoms: _531  and  _533
REMARK  225  A    between atoms: _533  and  _534
REMARK  226  A    between atoms: _533  and  _536
REMARK  227  A    between atoms: _536  and  _537
REMARK  228  A    between atoms: _542  and  _543
REMARK  229  A    between atoms: _545  and  _547
REMARK  230  A    between atoms: _547  and  _548
REMARK  231  A    between atoms: _547  and  _550
REMARK  232  A    between atoms: _550  and  _551
REMARK  233  A    between atoms: _551  and  _552
REMARK  234  A    between atoms: _552  and  _553
REMARK  235  A    between atoms: _553  and  _554
REMARK  236  A    between atoms: _558  and  _560
REMARK  237  A    between atoms: _560  and  _561
REMARK  238  A    between atoms: _560  and  _563
REMARK  239  A    between atoms: _563  and  _564
REMARK  240  A    between atoms: _564  and  _565
REMARK  241  A    between atoms: _568  and  _570
REMARK  242  A    between atoms: _570  and  _571
REMARK  243  A    between atoms: _570  and  _573
REMARK  244  A    between atoms: _573  and  _574
REMARK  245  A    between atoms: _574  and  _575
REMARK  246  A    between atoms: _575  and  _576
REMARK  247  A    between atoms: _576  and  _577
REMARK  248  A    between atoms: _581  and  _583
REMARK  249  A    between atoms: _583  and  _584
REMARK  250  A    between atoms: _583  and  _586
REMARK  251  A    between atoms: _589  and  _591
REMARK  252  A    between atoms: _591  and  _592
REMARK  253  A    between atoms: _591  and  _594
REMARK  254  A    between atoms: _594  and  _595
REMARK  255  A    between atoms: _600  and  _602
REMARK  256  A    between atoms: _602  and  _603
REMARK  257  A    between atoms: _602  and  _605
REMARK  258  A    between atoms: _605  and  _606
REMARK  259  A    between atoms: _606  and  _607
REMARK  260  A    between atoms: _607  and  _608
REMARK  261  A    between atoms: _608  and  _609
REMARK  262  A    between atoms: _614  and  _615
REMARK  263  A    between atoms: _620  and  _622
REMARK  264  A    between atoms: _622  and  _623
REMARK  265  A    between atoms: _622  and  _625
REMARK  266  A    between atoms: _625  and  _626
REMARK  267  A    between atoms: _629  and  _631
REMARK  268  A    between atoms: _631  and  _632
REMARK  269  A    between atoms: _634  and  _636
REMARK  270  A    between atoms: _636  and  _637
REMARK  271  A    between atoms: _636  and  _639
REMARK  272  A    between atoms: _639  and  _640
REMARK                            x       y       z     vdW  Elec       q    Type
REMARK                         _______ _______ _______ _____ _____    ______ ____
ROOT
ATOM      1  O   HOH     1      -2.473  89.225  48.360  0.00  0.00    +0.000 OA
ENDROOT
TORSDOF 0
