REMARK  Name = ../refined-set-2016/4ish/4ish_pocket.pdb
REMARK  202 active torsions:
REMARK  status: ('A' for Active; 'I' for Inactive)
REMARK    1  A    between atoms: _1  and  _5
REMARK    2  A    between atoms: _5  and  _6
REMARK    3  A    between atoms: _5  and  _8
REMARK    4  A    between atoms: _8  and  _9
REMARK    5  A    between atoms: _12  and  _14
REMARK    6  A    between atoms: _14  and  _15
REMARK    7  A    between atoms: _14  and  _17
REMARK    8  A    between atoms: _20  and  _22
REMARK    9  A    between atoms: _22  and  _23
REMARK   10  A    between atoms: _22  and  _25
REMARK   11  A    between atoms: _25  and  _26
REMARK   12  A    between atoms: _26  and  _27
REMARK   13  A    between atoms: _32  and  _34
REMARK   14  A    between atoms: _34  and  _35
REMARK   15  A    between atoms: _34  and  _37
REMARK   16  A    between atoms: _37  and  _38
REMARK   17  A    between atoms: _41  and  _43
REMARK   18  A    between atoms: _43  and  _44
REMARK   19  A    between atoms: _43  and  _46
REMARK   20  A    between atoms: _46  and  _47
REMARK   21  A    between atoms: _47  and  _77
REMARK   22  A    between atoms: _48  and  _50
REMARK   23  A    between atoms: _50  and  _51
REMARK   24  A    between atoms: _54  and  _56
REMARK   25  A    between atoms: _56  and  _57
REMARK   26  A    between atoms: _60  and  _62
REMARK   27  A    between atoms: _62  and  _63
REMARK   28  A    between atoms: _62  and  _65
REMARK   29  A    between atoms: _65  and  _66
REMARK   30  A    between atoms: _71  and  _73
REMARK   31  A    between atoms: _73  and  _74
REMARK   32  A    between atoms: _73  and  _76
REMARK   33  A    between atoms: _76  and  _77
REMARK   34  A    between atoms: _78  and  _80
REMARK   35  A    between atoms: _80  and  _81
REMARK   36  A    between atoms: _80  and  _83
REMARK   37  A    between atoms: _83  and  _84
REMARK   38  A    between atoms: _90  and  _92
REMARK   39  A    between atoms: _92  and  _93
REMARK   40  A    between atoms: _92  and  _95
REMARK   41  A    between atoms: _95  and  _96
REMARK   42  A    between atoms: _99  and  _101
REMARK   43  A    between atoms: _101  and  _102
REMARK   44  A    between atoms: _101  and  _104
REMARK   45  A    between atoms: _104  and  _105
REMARK   46  A    between atoms: _105  and  _106
REMARK   47  A    between atoms: _106  and  _107
REMARK   48  A    between atoms: _107  and  _108
REMARK   49  A    between atoms: _112  and  _114
REMARK   50  A    between atoms: _114  and  _115
REMARK   51  A    between atoms: _114  and  _117
REMARK   52  A    between atoms: _117  and  _118
REMARK   53  A    between atoms: _123  and  _124
REMARK   54  A    between atoms: _126  and  _128
REMARK   55  A    between atoms: _128  and  _129
REMARK   56  A    between atoms: _128  and  _131
REMARK   57  A    between atoms: _135  and  _136
REMARK   58  A    between atoms: _141  and  _143
REMARK   59  A    between atoms: _143  and  _144
REMARK   60  A    between atoms: _146  and  _148
REMARK   61  A    between atoms: _148  and  _149
REMARK   62  A    between atoms: _148  and  _151
REMARK   63  A    between atoms: _151  and  _152
REMARK   64  A    between atoms: _155  and  _157
REMARK   65  A    between atoms: _157  and  _158
REMARK   66  A    between atoms: _157  and  _160
REMARK   67  A    between atoms: _160  and  _161
REMARK   68  A    between atoms: _164  and  _166
REMARK   69  A    between atoms: _166  and  _167
REMARK   70  A    between atoms: _166  and  _169
REMARK   71  A    between atoms: _169  and  _170
REMARK   72  A    between atoms: _175  and  _177
REMARK   73  A    between atoms: _177  and  _178
REMARK   74  A    between atoms: _177  and  _180
REMARK   75  A    between atoms: _180  and  _181
REMARK   76  A    between atoms: _184  and  _186
REMARK   77  A    between atoms: _186  and  _187
REMARK   78  A    between atoms: _186  and  _189
REMARK   79  A    between atoms: _192  and  _194
REMARK   80  A    between atoms: _194  and  _195
REMARK   81  A    between atoms: _194  and  _197
REMARK   82  A    between atoms: _197  and  _198
REMARK   83  A    between atoms: _198  and  _199
REMARK   84  A    between atoms: _204  and  _206
REMARK   85  A    between atoms: _206  and  _207
REMARK   86  A    between atoms: _206  and  _209
REMARK   87  A    between atoms: _209  and  _210
REMARK   88  A    between atoms: _213  and  _215
REMARK   89  A    between atoms: _215  and  _216
REMARK   90  A    between atoms: _215  and  _218
REMARK   91  A    between atoms: _218  and  _219
REMARK   92  A    between atoms: _219  and  _220
REMARK   93  A    between atoms: _220  and  _221
REMARK   94  A    between atoms: _230  and  _232
REMARK   95  A    between atoms: _232  and  _233
REMARK   96  A    between atoms: _232  and  _235
REMARK   97  A    between atoms: _235  and  _236
REMARK   98  A    between atoms: _240  and  _241
REMARK   99  A    between atoms: _246  and  _248
REMARK  100  A    between atoms: _248  and  _249
REMARK  101  A    between atoms: _248  and  _251
REMARK  102  A    between atoms: _251  and  _252
REMARK  103  A    between atoms: _252  and  _253
REMARK  104  A    between atoms: _255  and  _257
REMARK  105  A    between atoms: _257  and  _258
REMARK  106  A    between atoms: _261  and  _263
REMARK  107  A    between atoms: _263  and  _264
REMARK  108  A    between atoms: _263  and  _266
REMARK  109  A    between atoms: _266  and  _267
REMARK  110  A    between atoms: _267  and  _268
REMARK  111  A    between atoms: _268  and  _269
REMARK  112  A    between atoms: _269  and  _270
REMARK  113  A    between atoms: _274  and  _276
REMARK  114  A    between atoms: _276  and  _277
REMARK  115  A    between atoms: _276  and  _279
REMARK  116  A    between atoms: _279  and  _280
REMARK  117  A    between atoms: _283  and  _285
REMARK  118  A    between atoms: _285  and  _286
REMARK  119  A    between atoms: _285  and  _288
REMARK  120  A    between atoms: _288  and  _289
REMARK  121  A    between atoms: _291  and  _293
REMARK  122  A    between atoms: _293  and  _294
REMARK  123  A    between atoms: _293  and  _296
REMARK  124  A    between atoms: _296  and  _297
REMARK  125  A    between atoms: _297  and  _412
REMARK  126  A    between atoms: _298  and  _300
REMARK  127  A    between atoms: _300  and  _301
REMARK  128  A    between atoms: _300  and  _303
REMARK  129  A    between atoms: _303  and  _304
REMARK  130  A    between atoms: _304  and  _305
REMARK  131  A    between atoms: _305  and  _306
REMARK  132  A    between atoms: _306  and  _307
REMARK  133  A    between atoms: _311  and  _313
REMARK  134  A    between atoms: _313  and  _314
REMARK  135  A    between atoms: _316  and  _318
REMARK  136  A    between atoms: _318  and  _319
REMARK  137  A    between atoms: _318  and  _321
REMARK  138  A    between atoms: _321  and  _322
REMARK  139  A    between atoms: _325  and  _327
REMARK  140  A    between atoms: _327  and  _328
REMARK  141  A    between atoms: _327  and  _330
REMARK  142  A    between atoms: _330  and  _331
REMARK  143  A    between atoms: _333  and  _335
REMARK  144  A    between atoms: _335  and  _336
REMARK  145  A    between atoms: _338  and  _340
REMARK  146  A    between atoms: _340  and  _341
REMARK  147  A    between atoms: _343  and  _345
REMARK  148  A    between atoms: _345  and  _346
REMARK  149  A    between atoms: _345  and  _348
REMARK  150  A    between atoms: _348  and  _349
REMARK  151  A    between atoms: _352  and  _354
REMARK  152  A    between atoms: _354  and  _355
REMARK  153  A    between atoms: _354  and  _357
REMARK  154  A    between atoms: _360  and  _362
REMARK  155  A    between atoms: _362  and  _363
REMARK  156  A    between atoms: _362  and  _365
REMARK  157  A    between atoms: _365  and  _366
REMARK  158  A    between atoms: _368  and  _370
REMARK  159  A    between atoms: _370  and  _371
REMARK  160  A    between atoms: _370  and  _373
REMARK  161  A    between atoms: _373  and  _374
REMARK  162  A    between atoms: _384  and  _386
REMARK  163  A    between atoms: _386  and  _387
REMARK  164  A    between atoms: _389  and  _391
REMARK  165  A    between atoms: _391  and  _392
REMARK  166  A    between atoms: _391  and  _394
REMARK  167  A    between atoms: _394  and  _395
REMARK  168  A    between atoms: _395  and  _396
REMARK  169  A    between atoms: _401  and  _403
REMARK  170  A    between atoms: _403  and  _404
REMARK  171  A    between atoms: _406  and  _408
REMARK  172  A    between atoms: _408  and  _409
REMARK  173  A    between atoms: _408  and  _411
REMARK  174  A    between atoms: _411  and  _412
REMARK  175  A    between atoms: _413  and  _415
REMARK  176  A    between atoms: _415  and  _416
REMARK  177  A    between atoms: _419  and  _421
REMARK  178  A    between atoms: _421  and  _422
REMARK  179  A    between atoms: _421  and  _424
REMARK  180  A    between atoms: _424  and  _425
REMARK  181  A    between atoms: _428  and  _430
REMARK  182  A    between atoms: _430  and  _431
REMARK  183  A    between atoms: _430  and  _433
REMARK  184  A    between atoms: _433  and  _434
REMARK  185  A    between atoms: _439  and  _441
REMARK  186  A    between atoms: _441  and  _442
REMARK  187  A    between atoms: _441  and  _444
REMARK  188  A    between atoms: _444  and  _445
REMARK  189  A    between atoms: _451  and  _453
REMARK  190  A    between atoms: _453  and  _454
REMARK  191  A    between atoms: _456  and  _458
REMARK  192  A    between atoms: _458  and  _459
REMARK  193  A    between atoms: _458  and  _461
REMARK  194  A    between atoms: _464  and  _466
REMARK  195  A    between atoms: _466  and  _467
REMARK  196  A    between atoms: _466  and  _469
REMARK  197  A    between atoms: _469  and  _470
REMARK  198  A    between atoms: _475  and  _476
REMARK  199  A    between atoms: _478  and  _480
REMARK  200  A    between atoms: _480  and  _481
REMARK  201  A    between atoms: _480  and  _483
REMARK  202  A    between atoms: _483  and  _484
REMARK                            x       y       z     vdW  Elec       q    Type
REMARK                         _______ _______ _______ _____ _____    ______ ____
ROOT
ATOM      1  C   ILE A   1      19.080  34.839  30.636  0.00  0.00    +0.202 C 
ATOM      2  N   VAL A   2      18.319  34.521  31.680  0.00  0.00    -0.301 N 
ATOM      3  H   VAL A   2      17.471  33.941  31.520  0.00  0.00    +0.150 HD
ATOM      4  O   ILE A   1      20.090  35.533  30.723  0.00  0.00    -0.277 OA
ENDROOT
BRANCH   1   5
ATOM      5  CA  ILE A   1      18.640  34.288  29.284  0.00  0.00    +0.013 C 
BRANCH   5   6
ATOM      6  N   ILE A   1      18.453  35.421  28.332  0.00  0.00    +0.387 N 
ATOM      7  H1  ILE A   1      17.725  36.066  28.701  0.00  0.00    -0.089 HD
ATOM      8  H2  ILE A   1      19.351  35.935  28.225  0.00  0.00    -0.089 HD
ATOM      9  H3  ILE A   1      18.153  35.050  27.408  0.00  0.00    -0.089 HD
ENDBRANCH   5   6
BRANCH   5  10
ATOM     10  CB  ILE A   1      19.730  33.313  28.783  0.00  0.00    -0.011 C 
ATOM     11  CG2 ILE A   1      19.932  32.202  29.799  0.00  0.00    -0.002 C 
BRANCH  10  12
ATOM     12  CG1 ILE A   1      19.331  32.716  27.427  0.00  0.00    -0.002 C 
ATOM     13  CD1 ILE A   1      18.104  31.818  27.491  0.00  0.00    -0.000 C 
ENDBRANCH  10  12
ENDBRANCH   5  10
ENDBRANCH   1   5
BRANCH   2  14
ATOM     14  CA  VAL A   2      18.626  34.953  33.042  0.00  0.00    +0.137 C 
BRANCH  14  15
ATOM     15  CB  VAL A   2      17.341  35.433  33.769  0.00  0.00    +0.026 C 
ATOM     16  CG2 VAL A   2      17.669  35.893  35.191  0.00  0.00    +0.002 C 
ATOM     17  CG1 VAL A   2      16.697  36.562  32.981  0.00  0.00    +0.002 C 
ENDBRANCH  14  15
BRANCH  14  18
ATOM     18  C   VAL A   2      19.247  33.812  33.849  0.00  0.00    +0.227 C 
ATOM     19  O   VAL A   2      18.690  32.716  33.920  0.00  0.00    -0.286 OA
ENDBRANCH  14  18
ENDBRANCH   2  14
TORSDOF 7
REMARK  Name = ../refined-set-2016/4ish/4ish_pocket.pdb
REMARK  202 active torsions:
REMARK  status: ('A' for Active; 'I' for Inactive)
REMARK    1  A    between atoms: _1  and  _5
REMARK    2  A    between atoms: _5  and  _6
REMARK    3  A    between atoms: _5  and  _8
REMARK    4  A    between atoms: _8  and  _9
REMARK    5  A    between atoms: _12  and  _14
REMARK    6  A    between atoms: _14  and  _15
REMARK    7  A    between atoms: _14  and  _17
REMARK    8  A    between atoms: _20  and  _22
REMARK    9  A    between atoms: _22  and  _23
REMARK   10  A    between atoms: _22  and  _25
REMARK   11  A    between atoms: _25  and  _26
REMARK   12  A    between atoms: _26  and  _27
REMARK   13  A    between atoms: _32  and  _34
REMARK   14  A    between atoms: _34  and  _35
REMARK   15  A    between atoms: _34  and  _37
REMARK   16  A    between atoms: _37  and  _38
REMARK   17  A    between atoms: _41  and  _43
REMARK   18  A    between atoms: _43  and  _44
REMARK   19  A    between atoms: _43  and  _46
REMARK   20  A    between atoms: _46  and  _47
REMARK   21  A    between atoms: _47  and  _77
REMARK   22  A    between atoms: _48  and  _50
REMARK   23  A    between atoms: _50  and  _51
REMARK   24  A    between atoms: _54  and  _56
REMARK   25  A    between atoms: _56  and  _57
REMARK   26  A    between atoms: _60  and  _62
REMARK   27  A    between atoms: _62  and  _63
REMARK   28  A    between atoms: _62  and  _65
REMARK   29  A    between atoms: _65  and  _66
REMARK   30  A    between atoms: _71  and  _73
REMARK   31  A    between atoms: _73  and  _74
REMARK   32  A    between atoms: _73  and  _76
REMARK   33  A    between atoms: _76  and  _77
REMARK   34  A    between atoms: _78  and  _80
REMARK   35  A    between atoms: _80  and  _81
REMARK   36  A    between atoms: _80  and  _83
REMARK   37  A    between atoms: _83  and  _84
REMARK   38  A    between atoms: _90  and  _92
REMARK   39  A    between atoms: _92  and  _93
REMARK   40  A    between atoms: _92  and  _95
REMARK   41  A    between atoms: _95  and  _96
REMARK   42  A    between atoms: _99  and  _101
REMARK   43  A    between atoms: _101  and  _102
REMARK   44  A    between atoms: _101  and  _104
REMARK   45  A    between atoms: _104  and  _105
REMARK   46  A    between atoms: _105  and  _106
REMARK   47  A    between atoms: _106  and  _107
REMARK   48  A    between atoms: _107  and  _108
REMARK   49  A    between atoms: _112  and  _114
REMARK   50  A    between atoms: _114  and  _115
REMARK   51  A    between atoms: _114  and  _117
REMARK   52  A    between atoms: _117  and  _118
REMARK   53  A    between atoms: _123  and  _124
REMARK   54  A    between atoms: _126  and  _128
REMARK   55  A    between atoms: _128  and  _129
REMARK   56  A    between atoms: _128  and  _131
REMARK   57  A    between atoms: _135  and  _136
REMARK   58  A    between atoms: _141  and  _143
REMARK   59  A    between atoms: _143  and  _144
REMARK   60  A    between atoms: _146  and  _148
REMARK   61  A    between atoms: _148  and  _149
REMARK   62  A    between atoms: _148  and  _151
REMARK   63  A    between atoms: _151  and  _152
REMARK   64  A    between atoms: _155  and  _157
REMARK   65  A    between atoms: _157  and  _158
REMARK   66  A    between atoms: _157  and  _160
REMARK   67  A    between atoms: _160  and  _161
REMARK   68  A    between atoms: _164  and  _166
REMARK   69  A    between atoms: _166  and  _167
REMARK   70  A    between atoms: _166  and  _169
REMARK   71  A    between atoms: _169  and  _170
REMARK   72  A    between atoms: _175  and  _177
REMARK   73  A    between atoms: _177  and  _178
REMARK   74  A    between atoms: _177  and  _180
REMARK   75  A    between atoms: _180  and  _181
REMARK   76  A    between atoms: _184  and  _186
REMARK   77  A    between atoms: _186  and  _187
REMARK   78  A    between atoms: _186  and  _189
REMARK   79  A    between atoms: _192  and  _194
REMARK   80  A    between atoms: _194  and  _195
REMARK   81  A    between atoms: _194  and  _197
REMARK   82  A    between atoms: _197  and  _198
REMARK   83  A    between atoms: _198  and  _199
REMARK   84  A    between atoms: _204  and  _206
REMARK   85  A    between atoms: _206  and  _207
REMARK   86  A    between atoms: _206  and  _209
REMARK   87  A    between atoms: _209  and  _210
REMARK   88  A    between atoms: _213  and  _215
REMARK   89  A    between atoms: _215  and  _216
REMARK   90  A    between atoms: _215  and  _218
REMARK   91  A    between atoms: _218  and  _219
REMARK   92  A    between atoms: _219  and  _220
REMARK   93  A    between atoms: _220  and  _221
REMARK   94  A    between atoms: _230  and  _232
REMARK   95  A    between atoms: _232  and  _233
REMARK   96  A    between atoms: _232  and  _235
REMARK   97  A    between atoms: _235  and  _236
REMARK   98  A    between atoms: _240  and  _241
REMARK   99  A    between atoms: _246  and  _248
REMARK  100  A    between atoms: _248  and  _249
REMARK  101  A    between atoms: _248  and  _251
REMARK  102  A    between atoms: _251  and  _252
REMARK  103  A    between atoms: _252  and  _253
REMARK  104  A    between atoms: _255  and  _257
REMARK  105  A    between atoms: _257  and  _258
REMARK  106  A    between atoms: _261  and  _263
REMARK  107  A    between atoms: _263  and  _264
REMARK  108  A    between atoms: _263  and  _266
REMARK  109  A    between atoms: _266  and  _267
REMARK  110  A    between atoms: _267  and  _268
REMARK  111  A    between atoms: _268  and  _269
REMARK  112  A    between atoms: _269  and  _270
REMARK  113  A    between atoms: _274  and  _276
REMARK  114  A    between atoms: _276  and  _277
REMARK  115  A    between atoms: _276  and  _279
REMARK  116  A    between atoms: _279  and  _280
REMARK  117  A    between atoms: _283  and  _285
REMARK  118  A    between atoms: _285  and  _286
REMARK  119  A    between atoms: _285  and  _288
REMARK  120  A    between atoms: _288  and  _289
REMARK  121  A    between atoms: _291  and  _293
REMARK  122  A    between atoms: _293  and  _294
REMARK  123  A    between atoms: _293  and  _296
REMARK  124  A    between atoms: _296  and  _297
REMARK  125  A    between atoms: _297  and  _412
REMARK  126  A    between atoms: _298  and  _300
REMARK  127  A    between atoms: _300  and  _301
REMARK  128  A    between atoms: _300  and  _303
REMARK  129  A    between atoms: _303  and  _304
REMARK  130  A    between atoms: _304  and  _305
REMARK  131  A    between atoms: _305  and  _306
REMARK  132  A    between atoms: _306  and  _307
REMARK  133  A    between atoms: _311  and  _313
REMARK  134  A    between atoms: _313  and  _314
REMARK  135  A    between atoms: _316  and  _318
REMARK  136  A    between atoms: _318  and  _319
REMARK  137  A    between atoms: _318  and  _321
REMARK  138  A    between atoms: _321  and  _322
REMARK  139  A    between atoms: _325  and  _327
REMARK  140  A    between atoms: _327  and  _328
REMARK  141  A    between atoms: _327  and  _330
REMARK  142  A    between atoms: _330  and  _331
REMARK  143  A    between atoms: _333  and  _335
REMARK  144  A    between atoms: _335  and  _336
REMARK  145  A    between atoms: _338  and  _340
REMARK  146  A    between atoms: _340  and  _341
REMARK  147  A    between atoms: _343  and  _345
REMARK  148  A    between atoms: _345  and  _346
REMARK  149  A    between atoms: _345  and  _348
REMARK  150  A    between atoms: _348  and  _349
REMARK  151  A    between atoms: _352  and  _354
REMARK  152  A    between atoms: _354  and  _355
REMARK  153  A    between atoms: _354  and  _357
REMARK  154  A    between atoms: _360  and  _362
REMARK  155  A    between atoms: _362  and  _363
REMARK  156  A    between atoms: _362  and  _365
REMARK  157  A    between atoms: _365  and  _366
REMARK  158  A    between atoms: _368  and  _370
REMARK  159  A    between atoms: _370  and  _371
REMARK  160  A    between atoms: _370  and  _373
REMARK  161  A    between atoms: _373  and  _374
REMARK  162  A    between atoms: _384  and  _386
REMARK  163  A    between atoms: _386  and  _387
REMARK  164  A    between atoms: _389  and  _391
REMARK  165  A    between atoms: _391  and  _392
REMARK  166  A    between atoms: _391  and  _394
REMARK  167  A    between atoms: _394  and  _395
REMARK  168  A    between atoms: _395  and  _396
REMARK  169  A    between atoms: _401  and  _403
REMARK  170  A    between atoms: _403  and  _404
REMARK  171  A    between atoms: _406  and  _408
REMARK  172  A    between atoms: _408  and  _409
REMARK  173  A    between atoms: _408  and  _411
REMARK  174  A    between atoms: _411  and  _412
REMARK  175  A    between atoms: _413  and  _415
REMARK  176  A    between atoms: _415  and  _416
REMARK  177  A    between atoms: _419  and  _421
REMARK  178  A    between atoms: _421  and  _422
REMARK  179  A    between atoms: _421  and  _424
REMARK  180  A    between atoms: _424  and  _425
REMARK  181  A    between atoms: _428  and  _430
REMARK  182  A    between atoms: _430  and  _431
REMARK  183  A    between atoms: _430  and  _433
REMARK  184  A    between atoms: _433  and  _434
REMARK  185  A    between atoms: _439  and  _441
REMARK  186  A    between atoms: _441  and  _442
REMARK  187  A    between atoms: _441  and  _444
REMARK  188  A    between atoms: _444  and  _445
REMARK  189  A    between atoms: _451  and  _453
REMARK  190  A    between atoms: _453  and  _454
REMARK  191  A    between atoms: _456  and  _458
REMARK  192  A    between atoms: _458  and  _459
REMARK  193  A    between atoms: _458  and  _461
REMARK  194  A    between atoms: _464  and  _466
REMARK  195  A    between atoms: _466  and  _467
REMARK  196  A    between atoms: _466  and  _469
REMARK  197  A    between atoms: _469  and  _470
REMARK  198  A    between atoms: _475  and  _476
REMARK  199  A    between atoms: _478  and  _480
REMARK  200  A    between atoms: _480  and  _481
REMARK  201  A    between atoms: _480  and  _483
REMARK  202  A    between atoms: _483  and  _484
REMARK                            x       y       z     vdW  Elec       q    Type
REMARK                         _______ _______ _______ _____ _____    ______ ____
ROOT
ATOM      1  CA  CYS A   4       7.901  36.692  16.559  0.00  0.00    +0.160 C 
ENDROOT
BRANCH   1   2
ATOM      2  C   CYS A   4       7.527  37.529  15.338  0.00  0.00    +0.242 C 
ATOM      3  O   CYS A   4       8.191  38.517  15.031  0.00  0.00    -0.273 OA
ATOM      4  N   PHE A   5       6.468  37.130  14.643  0.00  0.00    -0.297 N 
ATOM      5  H   PHE A   5       5.862  36.376  15.026  0.00  0.00    +0.150 HD
BRANCH   4   6
ATOM      6  CA  PHE A   5       6.137  37.726  13.356  0.00  0.00    +0.153 C 
BRANCH   6   7
ATOM      7  C   PHE A   5       4.826  38.503  13.364  0.00  0.00    +0.241 C 
ATOM      8  N   ASP A   6       4.257  38.701  14.553  0.00  0.00    -0.297 N 
ATOM      9  H   ASP A   6       4.733  38.338  15.404  0.00  0.00    +0.150 HD
ATOM     10  O   PHE A   5       4.350  38.925  12.312  0.00  0.00    -0.273 OA
BRANCH   8  11
ATOM     11  CA  ASP A   6       2.985  39.412  14.704  0.00  0.00    +0.160 C 
BRANCH  11  12
ATOM     12  C   ASP A   6       3.018  40.835  14.149  0.00  0.00    +0.241 C 
ATOM     13  N   LYS A   7       4.156  41.506  14.288  0.00  0.00    -0.298 N 
ATOM     14  H   LYS A   7       5.006  41.007  14.621  0.00  0.00    +0.150 HD
ATOM     15  O   ASP A   6       2.018  41.323  13.619  0.00  0.00    -0.273 OA
BRANCH  13  16
ATOM     16  CA  LYS A   7       4.236  42.931  13.982  0.00  0.00    +0.137 C 
BRANCH  16  17
ATOM     17  C   LYS A   7       5.101  43.269  12.774  0.00  0.00    +0.227 C 
ATOM     18  O   LYS A   7       5.399  44.436  12.535  0.00  0.00    -0.286 OA
ENDBRANCH  16  17
BRANCH  16  19
ATOM     19  CB  LYS A   7       4.759  43.699  15.196  0.00  0.00    +0.028 C 
BRANCH  19  20
ATOM     20  CG  LYS A   7       3.848  43.645  16.408  0.00  0.00    -0.000 C 
BRANCH  20  21
ATOM     21  CD  LYS A   7       4.549  44.200  17.635  0.00  0.00    -0.024 C 
BRANCH  21  22
ATOM     22  CE  LYS A   7       3.644  44.170  18.856  0.00  0.00    -0.086 C 
BRANCH  22  23
ATOM     23  NZ  LYS A   7       4.391  44.526  20.095  0.00  0.00    +0.380 N 
ATOM     24  HZ1 LYS A   7       3.744  44.496  20.909  0.00  0.00    -0.089 HD
ATOM     25  HZ2 LYS A   7       5.164  43.846  20.240  0.00  0.00    -0.089 HD
ATOM     26  HZ3 LYS A   7       4.784  45.484  19.998  0.00  0.00    -0.089 HD
ENDBRANCH  22  23
ENDBRANCH  21  22
ENDBRANCH  20  21
ENDBRANCH  19  20
ENDBRANCH  16  19
ENDBRANCH  13  16
ENDBRANCH  11  12
BRANCH  11  27
ATOM     27  CB  ASP A   6       2.585  39.489  16.179  0.00  0.00    +0.143 C 
BRANCH  27  28
ATOM     28  CG  ASP A   6       1.923  38.223  16.683  0.00  0.00    +0.367 C 
ATOM     29  OD2 ASP A   6       1.391  38.258  17.814  0.00  0.00    -0.246 OA
ATOM     30  OD1 ASP A   6       1.926  37.201  15.963  0.00  0.00    -0.246 OA
ENDBRANCH  27  28
ENDBRANCH  11  27
ENDBRANCH   8  11
ENDBRANCH   6   7
BRANCH   6  31
ATOM     31  CB  PHE A   5       6.116  36.624  12.290  0.00  0.00    +0.055 C 
BRANCH  31  32
ATOM     32  CG  PHE A   5       7.380  35.814  12.264  0.00  0.00    -0.020 A 
ATOM     33  CD2 PHE A   5       7.462  34.606  12.940  0.00  0.00    -0.004 A 
ATOM     34  CE2 PHE A   5       8.654  33.916  13.012  0.00  0.00    -0.000 A 
ATOM     35  CZ  PHE A   5       9.785  34.423  12.403  0.00  0.00    -0.000 A 
ATOM     36  CE1 PHE A   5       9.718  35.622  11.718  0.00  0.00    -0.000 A 
ATOM     37  CD1 PHE A   5       8.518  36.310  11.650  0.00  0.00    -0.004 A 
ENDBRANCH  31  32
ENDBRANCH   6  31
ENDBRANCH   4   6
ENDBRANCH   1   2
BRANCH   1  38
ATOM     38  N   CYS A   4       6.810  35.840  17.024  0.00  0.00    -0.296 N 
ATOM     39  C   HIS A   3       5.646  36.350  17.418  0.00  0.00    +0.241 C 
ATOM     40  O   HIS A   3       5.439  37.564  17.473  0.00  0.00    -0.273 OA
ATOM     41  H   CYS A   4       6.946  34.809  17.048  0.00  0.00    +0.150 HD
BRANCH  39  42
ATOM     42  CA  HIS A   3       4.548  35.357  17.791  0.00  0.00    +0.155 C 
BRANCH  42  43
ATOM     43  N   HIS A   3       4.786  34.003  17.281  0.00  0.00    -0.297 N 
ATOM     44  H   HIS A   3       4.955  33.225  17.950  0.00  0.00    +0.150 HD
ATOM     45  C   ALA A   2       4.788  33.758  15.971  0.00  0.00    +0.241 C 
ATOM     46  O   ALA A   2       4.710  34.656  15.129  0.00  0.00    -0.273 OA
BRANCH  45  47
ATOM     47  CA  ALA A   2       4.902  32.293  15.529  0.00  0.00    +0.149 C 
ATOM     48  CB  ALA A   2       3.520  31.625  15.571  0.00  0.00    +0.031 C 
BRANCH  47  49
ATOM     49  N   ALA A   2       5.850  31.537  16.350  0.00  0.00    -0.297 N 
ATOM     50  H   ALA A   2       5.534  30.667  16.825  0.00  0.00    +0.150 HD
ATOM     51  C   ALA A   1       7.108  31.942  16.500  0.00  0.00    +0.238 C 
ATOM     52  O   ALA A   1       7.546  32.959  15.964  0.00  0.00    -0.274 OA
BRANCH  51  53
ATOM     53  CA  ALA A   1       8.002  31.090  17.394  0.00  0.00    +0.145 C 
ATOM     54  CB  ALA A   1       8.146  31.752  18.765  0.00  0.00    +0.028 C 
BRANCH  53  55
ATOM     55  N   ALA A   1       9.319  30.906  16.790  0.00  0.00    -0.238 NA
ATOM     56  H   ALA A   1      10.015  31.676  16.847  0.00  0.00    +0.142 HD
ENDBRANCH  53  55
ENDBRANCH  51  53
ENDBRANCH  47  49
ENDBRANCH  45  47
ENDBRANCH  42  43
BRANCH  42  57
ATOM     57  CB  HIS A   3       4.344  35.336  19.319  0.00  0.00    +0.076 C 
BRANCH  57  58
ATOM     58  CG  HIS A   3       5.613  35.347  20.120  0.00  0.00    +0.082 A 
ATOM     59  ND1 HIS A   3       6.029  34.265  20.868  0.00  0.00    -0.227 NA
ATOM     60  CE1 HIS A   3       7.133  34.580  21.521  0.00  0.00    +0.199 A 
ATOM     61  NE2 HIS A   3       7.453  35.826  21.221  0.00  0.00    -0.221 NA
ATOM     62  CD2 HIS A   3       6.520  36.327  20.345  0.00  0.00    +0.115 A 
ENDBRANCH  57  58
ENDBRANCH  42  57
ENDBRANCH  39  42
ENDBRANCH   1  38
BRANCH   1  63
ATOM     63  CB  CYS A   4       9.127  35.837  16.228  0.00  0.00    +0.098 C 
BRANCH  63  64
ATOM     64  SG  CYS A   4       9.912  35.131  17.711  0.00  0.00    -0.080 S 
BRANCH  64  65
ATOM     65  SG  HIS A   3      11.221  36.582  18.261  0.00  0.00    -0.080 S 
BRANCH  65  66
ATOM     66  CB  HIS A   3      12.740  36.090  17.388  0.00  0.00    +0.096 C 
BRANCH  66  67
ATOM     67  CA  HIS A   3      14.037  36.643  17.983  0.00  0.00    +0.149 C 
BRANCH  67  70
ATOM     68  C   ALA A   2      13.676  39.024  17.610  0.00  0.00    +0.241 C 
ATOM     69  O   ALA A   2      12.853  39.114  18.521  0.00  0.00    -0.273 OA
ATOM     70  N   HIS A   3      14.363  37.916  17.356  0.00  0.00    -0.297 N 
ATOM     71  H   HIS A   3      15.159  37.959  16.688  0.00  0.00    +0.150 HD
BRANCH  68  72
ATOM     72  CA  ALA A   2      13.959  40.205  16.688  0.00  0.00    +0.149 C 
BRANCH  72  75
ATOM     73  C   ALA A   1      15.977  41.530  17.086  0.00  0.00    +0.238 C 
ATOM     74  O   ALA A   1      15.373  42.400  17.727  0.00  0.00    -0.274 OA
ATOM     75  N   ALA A   2      15.392  40.448  16.585  0.00  0.00    -0.297 N 
ATOM     76  H   ALA A   2      15.982  39.744  16.098  0.00  0.00    +0.150 HD
BRANCH  73  77
ATOM     77  CA  ALA A   1      17.462  41.658  16.772  0.00  0.00    +0.145 C 
BRANCH  77  78
ATOM     78  N   ALA A   1      17.790  43.014  16.368  0.00  0.00    -0.238 NA
ATOM     79  H   ALA A   1      18.375  43.626  16.972  0.00  0.00    +0.142 HD
ENDBRANCH  77  78
BRANCH  77  80
ATOM     80  CB  ALA A   1      18.331  41.196  17.953  0.00  0.00    +0.036 C 
BRANCH  80  81
ATOM     81  CG  ALA A   1      18.024  41.773  19.315  0.00  0.00    +0.087 C 
BRANCH  81  82
ATOM     82  CD  ALA A   1      19.004  41.257  20.362  0.00  0.00    +0.219 C 
ATOM     83  NE2 ALA A   1      18.554  40.321  21.194  0.00  0.00    -0.329 N 
ATOM     84 HE21 ALA A   1      19.184  39.924  21.920  0.00  0.00    +0.145 HD
ATOM     85 HE22 ALA A   1      17.572  39.986  21.118  0.00  0.00    +0.145 HD
ATOM     86  OE1 ALA A   1      20.155  41.687  20.410  0.00  0.00    -0.275 OA
ENDBRANCH  81  82
ENDBRANCH  80  81
ENDBRANCH  77  80
ENDBRANCH  73  77
ENDBRANCH  72  75
BRANCH  72  87
ATOM     87  CB  ALA A   2      13.382  39.902  15.303  0.00  0.00    +0.029 C 
BRANCH  87  88
ATOM     88  CG  ALA A   2      11.925  39.422  15.278  0.00  0.00    +0.002 C 
ATOM     89  CD2 ALA A   2      10.991  40.599  15.528  0.00  0.00    +0.000 C 
ATOM     90  CD1 ALA A   2      11.616  38.782  13.930  0.00  0.00    +0.000 C 
ENDBRANCH  87  88
ENDBRANCH  72  87
ENDBRANCH  68  72
ENDBRANCH  67  70
BRANCH  67  91
ATOM     91  C   HIS A   3      15.159  35.642  17.744  0.00  0.00    +0.228 C 
ATOM     92  O   HIS A   3      16.070  35.895  16.957  0.00  0.00    -0.286 OA
ENDBRANCH  67  91
ENDBRANCH  66  67
ENDBRANCH  65  66
ENDBRANCH  64  65
ENDBRANCH  63  64
ENDBRANCH   1  63
TORSDOF 41
REMARK  Name = ../refined-set-2016/4ish/4ish_pocket.pdb
REMARK  202 active torsions:
REMARK  status: ('A' for Active; 'I' for Inactive)
REMARK    1  A    between atoms: _1  and  _5
REMARK    2  A    between atoms: _5  and  _6
REMARK    3  A    between atoms: _5  and  _8
REMARK    4  A    between atoms: _8  and  _9
REMARK    5  A    between atoms: _12  and  _14
REMARK    6  A    between atoms: _14  and  _15
REMARK    7  A    between atoms: _14  and  _17
REMARK    8  A    between atoms: _20  and  _22
REMARK    9  A    between atoms: _22  and  _23
REMARK   10  A    between atoms: _22  and  _25
REMARK   11  A    between atoms: _25  and  _26
REMARK   12  A    between atoms: _26  and  _27
REMARK   13  A    between atoms: _32  and  _34
REMARK   14  A    between atoms: _34  and  _35
REMARK   15  A    between atoms: _34  and  _37
REMARK   16  A    between atoms: _37  and  _38
REMARK   17  A    between atoms: _41  and  _43
REMARK   18  A    between atoms: _43  and  _44
REMARK   19  A    between atoms: _43  and  _46
REMARK   20  A    between atoms: _46  and  _47
REMARK   21  A    between atoms: _47  and  _77
REMARK   22  A    between atoms: _48  and  _50
REMARK   23  A    between atoms: _50  and  _51
REMARK   24  A    between atoms: _54  and  _56
REMARK   25  A    between atoms: _56  and  _57
REMARK   26  A    between atoms: _60  and  _62
REMARK   27  A    between atoms: _62  and  _63
REMARK   28  A    between atoms: _62  and  _65
REMARK   29  A    between atoms: _65  and  _66
REMARK   30  A    between atoms: _71  and  _73
REMARK   31  A    between atoms: _73  and  _74
REMARK   32  A    between atoms: _73  and  _76
REMARK   33  A    between atoms: _76  and  _77
REMARK   34  A    between atoms: _78  and  _80
REMARK   35  A    between atoms: _80  and  _81
REMARK   36  A    between atoms: _80  and  _83
REMARK   37  A    between atoms: _83  and  _84
REMARK   38  A    between atoms: _90  and  _92
REMARK   39  A    between atoms: _92  and  _93
REMARK   40  A    between atoms: _92  and  _95
REMARK   41  A    between atoms: _95  and  _96
REMARK   42  A    between atoms: _99  and  _101
REMARK   43  A    between atoms: _101  and  _102
REMARK   44  A    between atoms: _101  and  _104
REMARK   45  A    between atoms: _104  and  _105
REMARK   46  A    between atoms: _105  and  _106
REMARK   47  A    between atoms: _106  and  _107
REMARK   48  A    between atoms: _107  and  _108
REMARK   49  A    between atoms: _112  and  _114
REMARK   50  A    between atoms: _114  and  _115
REMARK   51  A    between atoms: _114  and  _117
REMARK   52  A    between atoms: _117  and  _118
REMARK   53  A    between atoms: _123  and  _124
REMARK   54  A    between atoms: _126  and  _128
REMARK   55  A    between atoms: _128  and  _129
REMARK   56  A    between atoms: _128  and  _131
REMARK   57  A    between atoms: _135  and  _136
REMARK   58  A    between atoms: _141  and  _143
REMARK   59  A    between atoms: _143  and  _144
REMARK   60  A    between atoms: _146  and  _148
REMARK   61  A    between atoms: _148  and  _149
REMARK   62  A    between atoms: _148  and  _151
REMARK   63  A    between atoms: _151  and  _152
REMARK   64  A    between atoms: _155  and  _157
REMARK   65  A    between atoms: _157  and  _158
REMARK   66  A    between atoms: _157  and  _160
REMARK   67  A    between atoms: _160  and  _161
REMARK   68  A    between atoms: _164  and  _166
REMARK   69  A    between atoms: _166  and  _167
REMARK   70  A    between atoms: _166  and  _169
REMARK   71  A    between atoms: _169  and  _170
REMARK   72  A    between atoms: _175  and  _177
REMARK   73  A    between atoms: _177  and  _178
REMARK   74  A    between atoms: _177  and  _180
REMARK   75  A    between atoms: _180  and  _181
REMARK   76  A    between atoms: _184  and  _186
REMARK   77  A    between atoms: _186  and  _187
REMARK   78  A    between atoms: _186  and  _189
REMARK   79  A    between atoms: _192  and  _194
REMARK   80  A    between atoms: _194  and  _195
REMARK   81  A    between atoms: _194  and  _197
REMARK   82  A    between atoms: _197  and  _198
REMARK   83  A    between atoms: _198  and  _199
REMARK   84  A    between atoms: _204  and  _206
REMARK   85  A    between atoms: _206  and  _207
REMARK   86  A    between atoms: _206  and  _209
REMARK   87  A    between atoms: _209  and  _210
REMARK   88  A    between atoms: _213  and  _215
REMARK   89  A    between atoms: _215  and  _216
REMARK   90  A    between atoms: _215  and  _218
REMARK   91  A    between atoms: _218  and  _219
REMARK   92  A    between atoms: _219  and  _220
REMARK   93  A    between atoms: _220  and  _221
REMARK   94  A    between atoms: _230  and  _232
REMARK   95  A    between atoms: _232  and  _233
REMARK   96  A    between atoms: _232  and  _235
REMARK   97  A    between atoms: _235  and  _236
REMARK   98  A    between atoms: _240  and  _241
REMARK   99  A    between atoms: _246  and  _248
REMARK  100  A    between atoms: _248  and  _249
REMARK  101  A    between atoms: _248  and  _251
REMARK  102  A    between atoms: _251  and  _252
REMARK  103  A    between atoms: _252  and  _253
REMARK  104  A    between atoms: _255  and  _257
REMARK  105  A    between atoms: _257  and  _258
REMARK  106  A    between atoms: _261  and  _263
REMARK  107  A    between atoms: _263  and  _264
REMARK  108  A    between atoms: _263  and  _266
REMARK  109  A    between atoms: _266  and  _267
REMARK  110  A    between atoms: _267  and  _268
REMARK  111  A    between atoms: _268  and  _269
REMARK  112  A    between atoms: _269  and  _270
REMARK  113  A    between atoms: _274  and  _276
REMARK  114  A    between atoms: _276  and  _277
REMARK  115  A    between atoms: _276  and  _279
REMARK  116  A    between atoms: _279  and  _280
REMARK  117  A    between atoms: _283  and  _285
REMARK  118  A    between atoms: _285  and  _286
REMARK  119  A    between atoms: _285  and  _288
REMARK  120  A    between atoms: _288  and  _289
REMARK  121  A    between atoms: _291  and  _293
REMARK  122  A    between atoms: _293  and  _294
REMARK  123  A    between atoms: _293  and  _296
REMARK  124  A    between atoms: _296  and  _297
REMARK  125  A    between atoms: _297  and  _412
REMARK  126  A    between atoms: _298  and  _300
REMARK  127  A    between atoms: _300  and  _301
REMARK  128  A    between atoms: _300  and  _303
REMARK  129  A    between atoms: _303  and  _304
REMARK  130  A    between atoms: _304  and  _305
REMARK  131  A    between atoms: _305  and  _306
REMARK  132  A    between atoms: _306  and  _307
REMARK  133  A    between atoms: _311  and  _313
REMARK  134  A    between atoms: _313  and  _314
REMARK  135  A    between atoms: _316  and  _318
REMARK  136  A    between atoms: _318  and  _319
REMARK  137  A    between atoms: _318  and  _321
REMARK  138  A    between atoms: _321  and  _322
REMARK  139  A    between atoms: _325  and  _327
REMARK  140  A    between atoms: _327  and  _328
REMARK  141  A    between atoms: _327  and  _330
REMARK  142  A    between atoms: _330  and  _331
REMARK  143  A    between atoms: _333  and  _335
REMARK  144  A    between atoms: _335  and  _336
REMARK  145  A    between atoms: _338  and  _340
REMARK  146  A    between atoms: _340  and  _341
REMARK  147  A    between atoms: _343  and  _345
REMARK  148  A    between atoms: _345  and  _346
REMARK  149  A    between atoms: _345  and  _348
REMARK  150  A    between atoms: _348  and  _349
REMARK  151  A    between atoms: _352  and  _354
REMARK  152  A    between atoms: _354  and  _355
REMARK  153  A    between atoms: _354  and  _357
REMARK  154  A    between atoms: _360  and  _362
REMARK  155  A    between atoms: _362  and  _363
REMARK  156  A    between atoms: _362  and  _365
REMARK  157  A    between atoms: _365  and  _366
REMARK  158  A    between atoms: _368  and  _370
REMARK  159  A    between atoms: _370  and  _371
REMARK  160  A    between atoms: _370  and  _373
REMARK  161  A    between atoms: _373  and  _374
REMARK  162  A    between atoms: _384  and  _386
REMARK  163  A    between atoms: _386  and  _387
REMARK  164  A    between atoms: _389  and  _391
REMARK  165  A    between atoms: _391  and  _392
REMARK  166  A    between atoms: _391  and  _394
REMARK  167  A    between atoms: _394  and  _395
REMARK  168  A    between atoms: _395  and  _396
REMARK  169  A    between atoms: _401  and  _403
REMARK  170  A    between atoms: _403  and  _404
REMARK  171  A    between atoms: _406  and  _408
REMARK  172  A    between atoms: _408  and  _409
REMARK  173  A    between atoms: _408  and  _411
REMARK  174  A    between atoms: _411  and  _412
REMARK  175  A    between atoms: _413  and  _415
REMARK  176  A    between atoms: _415  and  _416
REMARK  177  A    between atoms: _419  and  _421
REMARK  178  A    between atoms: _421  and  _422
REMARK  179  A    between atoms: _421  and  _424
REMARK  180  A    between atoms: _424  and  _425
REMARK  181  A    between atoms: _428  and  _430
REMARK  182  A    between atoms: _430  and  _431
REMARK  183  A    between atoms: _430  and  _433
REMARK  184  A    between atoms: _433  and  _434
REMARK  185  A    between atoms: _439  and  _441
REMARK  186  A    between atoms: _441  and  _442
REMARK  187  A    between atoms: _441  and  _444
REMARK  188  A    between atoms: _444  and  _445
REMARK  189  A    between atoms: _451  and  _453
REMARK  190  A    between atoms: _453  and  _454
REMARK  191  A    between atoms: _456  and  _458
REMARK  192  A    between atoms: _458  and  _459
REMARK  193  A    between atoms: _458  and  _461
REMARK  194  A    between atoms: _464  and  _466
REMARK  195  A    between atoms: _466  and  _467
REMARK  196  A    between atoms: _466  and  _469
REMARK  197  A    between atoms: _469  and  _470
REMARK  198  A    between atoms: _475  and  _476
REMARK  199  A    between atoms: _478  and  _480
REMARK  200  A    between atoms: _480  and  _481
REMARK  201  A    between atoms: _480  and  _483
REMARK  202  A    between atoms: _483  and  _484
REMARK                            x       y       z     vdW  Elec       q    Type
REMARK                         _______ _______ _______ _____ _____    ______ ____
ROOT
ATOM      1  CA  GLY A   4      -1.402  38.170  20.196  0.00  0.00    +0.176 C 
ENDROOT
BRANCH   1   3
ATOM      2  C   PRO A   3      -2.165  37.326  18.064  0.00  0.00    +0.241 C 
ATOM      3  N   GLY A   4      -1.162  37.544  18.908  0.00  0.00    -0.295 N 
ATOM      4  H   GLY A   4      -0.196  37.264  18.644  0.00  0.00    +0.150 HD
ATOM      5  O   PRO A   3      -3.337  37.621  18.317  0.00  0.00    -0.273 OA
BRANCH   2   9
ATOM      6  C   VAL A   2      -3.050  34.626  17.201  0.00  0.00    +0.244 C 
ATOM      7  O   VAL A   2      -2.589  34.578  18.340  0.00  0.00    -0.273 OA
ATOM      8  N   PRO A   3      -2.743  35.617  16.352  0.00  0.00    -0.272 N 
ATOM      9  CA  PRO A   3      -1.791  36.661  16.742  0.00  0.00    +0.152 C 
ATOM     10  CB  PRO A   3      -1.832  37.637  15.567  0.00  0.00    +0.031 C 
ATOM     11  CG  PRO A   3      -2.242  36.785  14.401  0.00  0.00    +0.024 C 
ATOM     12  CD  PRO A   3      -3.222  35.798  14.971  0.00  0.00    +0.094 C 
BRANCH   6  13
ATOM     13  CA  VAL A   2      -4.001  33.549  16.701  0.00  0.00    +0.149 C 
BRANCH  13  15
ATOM     14  C   TYR A   1      -3.061  31.566  15.650  0.00  0.00    +0.239 C 
ATOM     15  N   VAL A   2      -3.342  32.253  16.750  0.00  0.00    -0.297 N 
ATOM     16  H   VAL A   2      -3.083  31.853  17.675  0.00  0.00    +0.150 HD
ATOM     17  O   TYR A   1      -3.392  31.938  14.525  0.00  0.00    -0.274 OA
BRANCH  14  18
ATOM     18  CA  TYR A   1      -2.294  30.264  15.853  0.00  0.00    +0.149 C 
BRANCH  18  19
ATOM     19  N   TYR A   1      -2.909  29.170  15.106  0.00  0.00    -0.238 NA
ATOM     20  H   TYR A   1      -2.455  28.823  14.237  0.00  0.00    +0.142 HD
ENDBRANCH  18  19
BRANCH  18  21
ATOM     21  CB  TYR A   1      -0.836  30.466  15.425  0.00  0.00    +0.053 C 
BRANCH  21  22
ATOM     22  CG  TYR A   1      -0.213  31.718  16.008  0.00  0.00    -0.020 A 
ATOM     23  CD2 TYR A   1       0.134  31.782  17.353  0.00  0.00    -0.001 A 
ATOM     24  CE2 TYR A   1       0.662  32.943  17.903  0.00  0.00    +0.036 A 
ATOM     25  CZ  TYR A   1       0.850  34.053  17.104  0.00  0.00    +0.134 A 
ATOM     26  CE1 TYR A   1       0.521  34.011  15.765  0.00  0.00    +0.036 A 
ATOM     27  CD1 TYR A   1      -0.008  32.848  15.224  0.00  0.00    -0.001 A 
BRANCH  25  28
ATOM     28  OH  TYR A   1       1.331  35.222  17.653  0.00  0.00    -0.506 OA
ATOM     29  HH  TYR A   1       1.516  35.082  18.615  0.00  0.00    +0.292 HD
ENDBRANCH  25  28
ENDBRANCH  21  22
ENDBRANCH  18  21
ENDBRANCH  14  18
ENDBRANCH  13  15
BRANCH  13  30
ATOM     30  CB  VAL A   2      -5.270  33.554  17.576  0.00  0.00    +0.027 C 
ATOM     31  CG2 VAL A   2      -5.889  34.944  17.591  0.00  0.00    +0.002 C 
ATOM     32  CG1 VAL A   2      -6.270  32.529  17.041  0.00  0.00    +0.002 C 
ENDBRANCH  13  30
ENDBRANCH   6  13
ENDBRANCH   2   9
ENDBRANCH   1   3
BRANCH   1  33
ATOM     33  C   GLY A   4      -1.756  37.204  21.314  0.00  0.00    +0.243 C 
ATOM     34  O   GLY A   4      -1.924  37.621  22.460  0.00  0.00    -0.273 OA
ATOM     35  N   THR A   5      -1.876  35.918  20.995  0.00  0.00    -0.295 N 
ATOM     36  H   THR A   5      -1.766  35.625  20.003  0.00  0.00    +0.150 HD
BRANCH  35  37
ATOM     37  CA  THR A   5      -2.159  34.911  22.012  0.00  0.00    +0.176 C 
BRANCH  37  38
ATOM     38  C   THR A   5      -1.005  33.918  22.120  0.00  0.00    +0.243 C 
ATOM     39  N   THR A   6      -1.208  32.846  22.879  0.00  0.00    -0.295 N 
ATOM     40  H   THR A   6      -2.169  32.627  23.209  0.00  0.00    +0.150 HD
ATOM     41  O   THR A   5       0.055  34.124  21.527  0.00  0.00    -0.273 OA
BRANCH  39  42
ATOM     42  CA  THR A   6      -0.101  31.971  23.256  0.00  0.00    +0.176 C 
BRANCH  42  43
ATOM     43  C   THR A   6      -0.085  30.599  22.580  0.00  0.00    +0.243 C 
ATOM     44  O   THR A   6       0.979  30.019  22.387  0.00  0.00    -0.273 OA
ATOM     45  N   ASN A   7      -1.256  30.076  22.229  0.00  0.00    -0.298 N 
ATOM     46  H   ASN A   7      -2.117  30.655  22.296  0.00  0.00    +0.150 HD
BRANCH  45  47
ATOM     47  CA  ASN A   7      -1.350  28.698  21.750  0.00  0.00    +0.146 C 
BRANCH  47  48
ATOM     48  C   ASN A   7      -0.763  28.535  20.345  0.00  0.00    +0.227 C 
ATOM     49  O   ASN A   7      -0.842  29.445  19.518  0.00  0.00    -0.286 OA
ENDBRANCH  47  48
BRANCH  47  50
ATOM     50  CB  ASN A   7      -2.813  28.238  21.757  0.00  0.00    +0.112 C 
BRANCH  50  51
ATOM     51  CG  ASN A   7      -2.960  26.746  22.021  0.00  0.00    +0.222 C 
ATOM     52  ND2 ASN A   7      -1.878  26.109  22.445  0.00  0.00    -0.329 N 
ATOM     53 HD21 ASN A   7      -1.920  25.089  22.646  0.00  0.00    +0.145 HD
ATOM     54 HD22 ASN A   7      -0.987  26.629  22.577  0.00  0.00    +0.145 HD
ATOM     55  OD1 ASN A   7      -4.040  26.174  21.849  0.00  0.00    -0.275 OA
ENDBRANCH  50  51
ENDBRANCH  47  50
ENDBRANCH  45  47
ENDBRANCH  42  43
BRANCH  42  56
ATOM     56  CB  THR A   6      -0.073  31.753  24.782  0.00  0.00    +0.137 C 
ATOM     57  CG2 THR A   6       0.275  33.055  25.501  0.00  0.00    +0.034 C 
BRANCH  56  58
ATOM     58  OG1 THR A   6      -1.356  31.286  25.220  0.00  0.00    -0.382 OA
ATOM     59  HG1 THR A   6      -2.046  31.959  24.994  0.00  0.00    +0.210 HD
ENDBRANCH  56  58
ENDBRANCH  42  56
ENDBRANCH  39  42
ENDBRANCH  37  38
BRANCH  37  60
ATOM     60  CB  THR A   5      -3.463  34.150  21.704  0.00  0.00    +0.137 C 
ATOM     61  CG2 THR A   5      -4.621  35.129  21.545  0.00  0.00    +0.034 C 
BRANCH  60  62
ATOM     62  OG1 THR A   5      -3.311  33.401  20.494  0.00  0.00    -0.382 OA
ATOM     63  HG1 THR A   5      -3.107  34.019  19.748  0.00  0.00    +0.210 HD
ENDBRANCH  60  62
ENDBRANCH  37  60
ENDBRANCH  35  37
ENDBRANCH   1  33
TORSDOF 23
REMARK  Name = ../refined-set-2016/4ish/4ish_pocket.pdb
REMARK  202 active torsions:
REMARK  status: ('A' for Active; 'I' for Inactive)
REMARK    1  A    between atoms: _1  and  _5
REMARK    2  A    between atoms: _5  and  _6
REMARK    3  A    between atoms: _5  and  _8
REMARK    4  A    between atoms: _8  and  _9
REMARK    5  A    between atoms: _12  and  _14
REMARK    6  A    between atoms: _14  and  _15
REMARK    7  A    between atoms: _14  and  _17
REMARK    8  A    between atoms: _20  and  _22
REMARK    9  A    between atoms: _22  and  _23
REMARK   10  A    between atoms: _22  and  _25
REMARK   11  A    between atoms: _25  and  _26
REMARK   12  A    between atoms: _26  and  _27
REMARK   13  A    between atoms: _32  and  _34
REMARK   14  A    between atoms: _34  and  _35
REMARK   15  A    between atoms: _34  and  _37
REMARK   16  A    between atoms: _37  and  _38
REMARK   17  A    between atoms: _41  and  _43
REMARK   18  A    between atoms: _43  and  _44
REMARK   19  A    between atoms: _43  and  _46
REMARK   20  A    between atoms: _46  and  _47
REMARK   21  A    between atoms: _47  and  _77
REMARK   22  A    between atoms: _48  and  _50
REMARK   23  A    between atoms: _50  and  _51
REMARK   24  A    between atoms: _54  and  _56
REMARK   25  A    between atoms: _56  and  _57
REMARK   26  A    between atoms: _60  and  _62
REMARK   27  A    between atoms: _62  and  _63
REMARK   28  A    between atoms: _62  and  _65
REMARK   29  A    between atoms: _65  and  _66
REMARK   30  A    between atoms: _71  and  _73
REMARK   31  A    between atoms: _73  and  _74
REMARK   32  A    between atoms: _73  and  _76
REMARK   33  A    between atoms: _76  and  _77
REMARK   34  A    between atoms: _78  and  _80
REMARK   35  A    between atoms: _80  and  _81
REMARK   36  A    between atoms: _80  and  _83
REMARK   37  A    between atoms: _83  and  _84
REMARK   38  A    between atoms: _90  and  _92
REMARK   39  A    between atoms: _92  and  _93
REMARK   40  A    between atoms: _92  and  _95
REMARK   41  A    between atoms: _95  and  _96
REMARK   42  A    between atoms: _99  and  _101
REMARK   43  A    between atoms: _101  and  _102
REMARK   44  A    between atoms: _101  and  _104
REMARK   45  A    between atoms: _104  and  _105
REMARK   46  A    between atoms: _105  and  _106
REMARK   47  A    between atoms: _106  and  _107
REMARK   48  A    between atoms: _107  and  _108
REMARK   49  A    between atoms: _112  and  _114
REMARK   50  A    between atoms: _114  and  _115
REMARK   51  A    between atoms: _114  and  _117
REMARK   52  A    between atoms: _117  and  _118
REMARK   53  A    between atoms: _123  and  _124
REMARK   54  A    between atoms: _126  and  _128
REMARK   55  A    between atoms: _128  and  _129
REMARK   56  A    between atoms: _128  and  _131
REMARK   57  A    between atoms: _135  and  _136
REMARK   58  A    between atoms: _141  and  _143
REMARK   59  A    between atoms: _143  and  _144
REMARK   60  A    between atoms: _146  and  _148
REMARK   61  A    between atoms: _148  and  _149
REMARK   62  A    between atoms: _148  and  _151
REMARK   63  A    between atoms: _151  and  _152
REMARK   64  A    between atoms: _155  and  _157
REMARK   65  A    between atoms: _157  and  _158
REMARK   66  A    between atoms: _157  and  _160
REMARK   67  A    between atoms: _160  and  _161
REMARK   68  A    between atoms: _164  and  _166
REMARK   69  A    between atoms: _166  and  _167
REMARK   70  A    between atoms: _166  and  _169
REMARK   71  A    between atoms: _169  and  _170
REMARK   72  A    between atoms: _175  and  _177
REMARK   73  A    between atoms: _177  and  _178
REMARK   74  A    between atoms: _177  and  _180
REMARK   75  A    between atoms: _180  and  _181
REMARK   76  A    between atoms: _184  and  _186
REMARK   77  A    between atoms: _186  and  _187
REMARK   78  A    between atoms: _186  and  _189
REMARK   79  A    between atoms: _192  and  _194
REMARK   80  A    between atoms: _194  and  _195
REMARK   81  A    between atoms: _194  and  _197
REMARK   82  A    between atoms: _197  and  _198
REMARK   83  A    between atoms: _198  and  _199
REMARK   84  A    between atoms: _204  and  _206
REMARK   85  A    between atoms: _206  and  _207
REMARK   86  A    between atoms: _206  and  _209
REMARK   87  A    between atoms: _209  and  _210
REMARK   88  A    between atoms: _213  and  _215
REMARK   89  A    between atoms: _215  and  _216
REMARK   90  A    between atoms: _215  and  _218
REMARK   91  A    between atoms: _218  and  _219
REMARK   92  A    between atoms: _219  and  _220
REMARK   93  A    between atoms: _220  and  _221
REMARK   94  A    between atoms: _230  and  _232
REMARK   95  A    between atoms: _232  and  _233
REMARK   96  A    between atoms: _232  and  _235
REMARK   97  A    between atoms: _235  and  _236
REMARK   98  A    between atoms: _240  and  _241
REMARK   99  A    between atoms: _246  and  _248
REMARK  100  A    between atoms: _248  and  _249
REMARK  101  A    between atoms: _248  and  _251
REMARK  102  A    between atoms: _251  and  _252
REMARK  103  A    between atoms: _252  and  _253
REMARK  104  A    between atoms: _255  and  _257
REMARK  105  A    between atoms: _257  and  _258
REMARK  106  A    between atoms: _261  and  _263
REMARK  107  A    between atoms: _263  and  _264
REMARK  108  A    between atoms: _263  and  _266
REMARK  109  A    between atoms: _266  and  _267
REMARK  110  A    between atoms: _267  and  _268
REMARK  111  A    between atoms: _268  and  _269
REMARK  112  A    between atoms: _269  and  _270
REMARK  113  A    between atoms: _274  and  _276
REMARK  114  A    between atoms: _276  and  _277
REMARK  115  A    between atoms: _276  and  _279
REMARK  116  A    between atoms: _279  and  _280
REMARK  117  A    between atoms: _283  and  _285
REMARK  118  A    between atoms: _285  and  _286
REMARK  119  A    between atoms: _285  and  _288
REMARK  120  A    between atoms: _288  and  _289
REMARK  121  A    between atoms: _291  and  _293
REMARK  122  A    between atoms: _293  and  _294
REMARK  123  A    between atoms: _293  and  _296
REMARK  124  A    between atoms: _296  and  _297
REMARK  125  A    between atoms: _297  and  _412
REMARK  126  A    between atoms: _298  and  _300
REMARK  127  A    between atoms: _300  and  _301
REMARK  128  A    between atoms: _300  and  _303
REMARK  129  A    between atoms: _303  and  _304
REMARK  130  A    between atoms: _304  and  _305
REMARK  131  A    between atoms: _305  and  _306
REMARK  132  A    between atoms: _306  and  _307
REMARK  133  A    between atoms: _311  and  _313
REMARK  134  A    between atoms: _313  and  _314
REMARK  135  A    between atoms: _316  and  _318
REMARK  136  A    between atoms: _318  and  _319
REMARK  137  A    between atoms: _318  and  _321
REMARK  138  A    between atoms: _321  and  _322
REMARK  139  A    between atoms: _325  and  _327
REMARK  140  A    between atoms: _327  and  _328
REMARK  141  A    between atoms: _327  and  _330
REMARK  142  A    between atoms: _330  and  _331
REMARK  143  A    between atoms: _333  and  _335
REMARK  144  A    between atoms: _335  and  _336
REMARK  145  A    between atoms: _338  and  _340
REMARK  146  A    between atoms: _340  and  _341
REMARK  147  A    between atoms: _343  and  _345
REMARK  148  A    between atoms: _345  and  _346
REMARK  149  A    between atoms: _345  and  _348
REMARK  150  A    between atoms: _348  and  _349
REMARK  151  A    between atoms: _352  and  _354
REMARK  152  A    between atoms: _354  and  _355
REMARK  153  A    between atoms: _354  and  _357
REMARK  154  A    between atoms: _360  and  _362
REMARK  155  A    between atoms: _362  and  _363
REMARK  156  A    between atoms: _362  and  _365
REMARK  157  A    between atoms: _365  and  _366
REMARK  158  A    between atoms: _368  and  _370
REMARK  159  A    between atoms: _370  and  _371
REMARK  160  A    between atoms: _370  and  _373
REMARK  161  A    between atoms: _373  and  _374
REMARK  162  A    between atoms: _384  and  _386
REMARK  163  A    between atoms: _386  and  _387
REMARK  164  A    between atoms: _389  and  _391
REMARK  165  A    between atoms: _391  and  _392
REMARK  166  A    between atoms: _391  and  _394
REMARK  167  A    between atoms: _394  and  _395
REMARK  168  A    between atoms: _395  and  _396
REMARK  169  A    between atoms: _401  and  _403
REMARK  170  A    between atoms: _403  and  _404
REMARK  171  A    between atoms: _406  and  _408
REMARK  172  A    between atoms: _408  and  _409
REMARK  173  A    between atoms: _408  and  _411
REMARK  174  A    between atoms: _411  and  _412
REMARK  175  A    between atoms: _413  and  _415
REMARK  176  A    between atoms: _415  and  _416
REMARK  177  A    between atoms: _419  and  _421
REMARK  178  A    between atoms: _421  and  _422
REMARK  179  A    between atoms: _421  and  _424
REMARK  180  A    between atoms: _424  and  _425
REMARK  181  A    between atoms: _428  and  _430
REMARK  182  A    between atoms: _430  and  _431
REMARK  183  A    between atoms: _430  and  _433
REMARK  184  A    between atoms: _433  and  _434
REMARK  185  A    between atoms: _439  and  _441
REMARK  186  A    between atoms: _441  and  _442
REMARK  187  A    between atoms: _441  and  _444
REMARK  188  A    between atoms: _444  and  _445
REMARK  189  A    between atoms: _451  and  _453
REMARK  190  A    between atoms: _453  and  _454
REMARK  191  A    between atoms: _456  and  _458
REMARK  192  A    between atoms: _458  and  _459
REMARK  193  A    between atoms: _458  and  _461
REMARK  194  A    between atoms: _464  and  _466
REMARK  195  A    between atoms: _466  and  _467
REMARK  196  A    between atoms: _466  and  _469
REMARK  197  A    between atoms: _469  and  _470
REMARK  198  A    between atoms: _475  and  _476
REMARK  199  A    between atoms: _478  and  _480
REMARK  200  A    between atoms: _480  and  _481
REMARK  201  A    between atoms: _480  and  _483
REMARK  202  A    between atoms: _483  and  _484
REMARK                            x       y       z     vdW  Elec       q    Type
REMARK                         _______ _______ _______ _____ _____    ______ ____
ROOT
ATOM      1  CA  ASP A   1       3.406  29.307  19.060  0.00  0.00    +0.144 C 
ENDROOT
BRANCH   1   2
ATOM      2  N   ASP A   1       2.402  28.279  19.283  0.00  0.00    -0.239 NA
ATOM      3  H   ASP A   1       2.396  27.756  20.182  0.00  0.00    +0.142 HD
ENDBRANCH   1   2
BRANCH   1   4
ATOM      4  C   ASP A   1       4.628  28.741  18.341  0.00  0.00    +0.225 C 
ATOM      5  O   ASP A   1       5.679  28.514  18.948  0.00  0.00    -0.287 OA
ENDBRANCH   1   4
BRANCH   1   6
ATOM      6  CB  ASP A   1       3.825  29.926  20.396  0.00  0.00    +0.139 C 
BRANCH   6   7
ATOM      7  CG  ASP A   1       4.575  31.225  20.216  0.00  0.00    +0.367 C 
ATOM      8  OD2 ASP A   1       5.086  31.759  21.218  0.00  0.00    -0.246 OA
ATOM      9  OD1 ASP A   1       4.648  31.713  19.067  0.00  0.00    -0.246 OA
ENDBRANCH   6   7
ENDBRANCH   1   6
TORSDOF 4
REMARK  Name = ../refined-set-2016/4ish/4ish_pocket.pdb
REMARK  202 active torsions:
REMARK  status: ('A' for Active; 'I' for Inactive)
REMARK    1  A    between atoms: _1  and  _5
REMARK    2  A    between atoms: _5  and  _6
REMARK    3  A    between atoms: _5  and  _8
REMARK    4  A    between atoms: _8  and  _9
REMARK    5  A    between atoms: _12  and  _14
REMARK    6  A    between atoms: _14  and  _15
REMARK    7  A    between atoms: _14  and  _17
REMARK    8  A    between atoms: _20  and  _22
REMARK    9  A    between atoms: _22  and  _23
REMARK   10  A    between atoms: _22  and  _25
REMARK   11  A    between atoms: _25  and  _26
REMARK   12  A    between atoms: _26  and  _27
REMARK   13  A    between atoms: _32  and  _34
REMARK   14  A    between atoms: _34  and  _35
REMARK   15  A    between atoms: _34  and  _37
REMARK   16  A    between atoms: _37  and  _38
REMARK   17  A    between atoms: _41  and  _43
REMARK   18  A    between atoms: _43  and  _44
REMARK   19  A    between atoms: _43  and  _46
REMARK   20  A    between atoms: _46  and  _47
REMARK   21  A    between atoms: _47  and  _77
REMARK   22  A    between atoms: _48  and  _50
REMARK   23  A    between atoms: _50  and  _51
REMARK   24  A    between atoms: _54  and  _56
REMARK   25  A    between atoms: _56  and  _57
REMARK   26  A    between atoms: _60  and  _62
REMARK   27  A    between atoms: _62  and  _63
REMARK   28  A    between atoms: _62  and  _65
REMARK   29  A    between atoms: _65  and  _66
REMARK   30  A    between atoms: _71  and  _73
REMARK   31  A    between atoms: _73  and  _74
REMARK   32  A    between atoms: _73  and  _76
REMARK   33  A    between atoms: _76  and  _77
REMARK   34  A    between atoms: _78  and  _80
REMARK   35  A    between atoms: _80  and  _81
REMARK   36  A    between atoms: _80  and  _83
REMARK   37  A    between atoms: _83  and  _84
REMARK   38  A    between atoms: _90  and  _92
REMARK   39  A    between atoms: _92  and  _93
REMARK   40  A    between atoms: _92  and  _95
REMARK   41  A    between atoms: _95  and  _96
REMARK   42  A    between atoms: _99  and  _101
REMARK   43  A    between atoms: _101  and  _102
REMARK   44  A    between atoms: _101  and  _104
REMARK   45  A    between atoms: _104  and  _105
REMARK   46  A    between atoms: _105  and  _106
REMARK   47  A    between atoms: _106  and  _107
REMARK   48  A    between atoms: _107  and  _108
REMARK   49  A    between atoms: _112  and  _114
REMARK   50  A    between atoms: _114  and  _115
REMARK   51  A    between atoms: _114  and  _117
REMARK   52  A    between atoms: _117  and  _118
REMARK   53  A    between atoms: _123  and  _124
REMARK   54  A    between atoms: _126  and  _128
REMARK   55  A    between atoms: _128  and  _129
REMARK   56  A    between atoms: _128  and  _131
REMARK   57  A    between atoms: _135  and  _136
REMARK   58  A    between atoms: _141  and  _143
REMARK   59  A    between atoms: _143  and  _144
REMARK   60  A    between atoms: _146  and  _148
REMARK   61  A    between atoms: _148  and  _149
REMARK   62  A    between atoms: _148  and  _151
REMARK   63  A    between atoms: _151  and  _152
REMARK   64  A    between atoms: _155  and  _157
REMARK   65  A    between atoms: _157  and  _158
REMARK   66  A    between atoms: _157  and  _160
REMARK   67  A    between atoms: _160  and  _161
REMARK   68  A    between atoms: _164  and  _166
REMARK   69  A    between atoms: _166  and  _167
REMARK   70  A    between atoms: _166  and  _169
REMARK   71  A    between atoms: _169  and  _170
REMARK   72  A    between atoms: _175  and  _177
REMARK   73  A    between atoms: _177  and  _178
REMARK   74  A    between atoms: _177  and  _180
REMARK   75  A    between atoms: _180  and  _181
REMARK   76  A    between atoms: _184  and  _186
REMARK   77  A    between atoms: _186  and  _187
REMARK   78  A    between atoms: _186  and  _189
REMARK   79  A    between atoms: _192  and  _194
REMARK   80  A    between atoms: _194  and  _195
REMARK   81  A    between atoms: _194  and  _197
REMARK   82  A    between atoms: _197  and  _198
REMARK   83  A    between atoms: _198  and  _199
REMARK   84  A    between atoms: _204  and  _206
REMARK   85  A    between atoms: _206  and  _207
REMARK   86  A    between atoms: _206  and  _209
REMARK   87  A    between atoms: _209  and  _210
REMARK   88  A    between atoms: _213  and  _215
REMARK   89  A    between atoms: _215  and  _216
REMARK   90  A    between atoms: _215  and  _218
REMARK   91  A    between atoms: _218  and  _219
REMARK   92  A    between atoms: _219  and  _220
REMARK   93  A    between atoms: _220  and  _221
REMARK   94  A    between atoms: _230  and  _232
REMARK   95  A    between atoms: _232  and  _233
REMARK   96  A    between atoms: _232  and  _235
REMARK   97  A    between atoms: _235  and  _236
REMARK   98  A    between atoms: _240  and  _241
REMARK   99  A    between atoms: _246  and  _248
REMARK  100  A    between atoms: _248  and  _249
REMARK  101  A    between atoms: _248  and  _251
REMARK  102  A    between atoms: _251  and  _252
REMARK  103  A    between atoms: _252  and  _253
REMARK  104  A    between atoms: _255  and  _257
REMARK  105  A    between atoms: _257  and  _258
REMARK  106  A    between atoms: _261  and  _263
REMARK  107  A    between atoms: _263  and  _264
REMARK  108  A    between atoms: _263  and  _266
REMARK  109  A    between atoms: _266  and  _267
REMARK  110  A    between atoms: _267  and  _268
REMARK  111  A    between atoms: _268  and  _269
REMARK  112  A    between atoms: _269  and  _270
REMARK  113  A    between atoms: _274  and  _276
REMARK  114  A    between atoms: _276  and  _277
REMARK  115  A    between atoms: _276  and  _279
REMARK  116  A    between atoms: _279  and  _280
REMARK  117  A    between atoms: _283  and  _285
REMARK  118  A    between atoms: _285  and  _286
REMARK  119  A    between atoms: _285  and  _288
REMARK  120  A    between atoms: _288  and  _289
REMARK  121  A    between atoms: _291  and  _293
REMARK  122  A    between atoms: _293  and  _294
REMARK  123  A    between atoms: _293  and  _296
REMARK  124  A    between atoms: _296  and  _297
REMARK  125  A    between atoms: _297  and  _412
REMARK  126  A    between atoms: _298  and  _300
REMARK  127  A    between atoms: _300  and  _301
REMARK  128  A    between atoms: _300  and  _303
REMARK  129  A    between atoms: _303  and  _304
REMARK  130  A    between atoms: _304  and  _305
REMARK  131  A    between atoms: _305  and  _306
REMARK  132  A    between atoms: _306  and  _307
REMARK  133  A    between atoms: _311  and  _313
REMARK  134  A    between atoms: _313  and  _314
REMARK  135  A    between atoms: _316  and  _318
REMARK  136  A    between atoms: _318  and  _319
REMARK  137  A    between atoms: _318  and  _321
REMARK  138  A    between atoms: _321  and  _322
REMARK  139  A    between atoms: _325  and  _327
REMARK  140  A    between atoms: _327  and  _328
REMARK  141  A    between atoms: _327  and  _330
REMARK  142  A    between atoms: _330  and  _331
REMARK  143  A    between atoms: _333  and  _335
REMARK  144  A    between atoms: _335  and  _336
REMARK  145  A    between atoms: _338  and  _340
REMARK  146  A    between atoms: _340  and  _341
REMARK  147  A    between atoms: _343  and  _345
REMARK  148  A    between atoms: _345  and  _346
REMARK  149  A    between atoms: _345  and  _348
REMARK  150  A    between atoms: _348  and  _349
REMARK  151  A    between atoms: _352  and  _354
REMARK  152  A    between atoms: _354  and  _355
REMARK  153  A    between atoms: _354  and  _357
REMARK  154  A    between atoms: _360  and  _362
REMARK  155  A    between atoms: _362  and  _363
REMARK  156  A    between atoms: _362  and  _365
REMARK  157  A    between atoms: _365  and  _366
REMARK  158  A    between atoms: _368  and  _370
REMARK  159  A    between atoms: _370  and  _371
REMARK  160  A    between atoms: _370  and  _373
REMARK  161  A    between atoms: _373  and  _374
REMARK  162  A    between atoms: _384  and  _386
REMARK  163  A    between atoms: _386  and  _387
REMARK  164  A    between atoms: _389  and  _391
REMARK  165  A    between atoms: _391  and  _392
REMARK  166  A    between atoms: _391  and  _394
REMARK  167  A    between atoms: _394  and  _395
REMARK  168  A    between atoms: _395  and  _396
REMARK  169  A    between atoms: _401  and  _403
REMARK  170  A    between atoms: _403  and  _404
REMARK  171  A    between atoms: _406  and  _408
REMARK  172  A    between atoms: _408  and  _409
REMARK  173  A    between atoms: _408  and  _411
REMARK  174  A    between atoms: _411  and  _412
REMARK  175  A    between atoms: _413  and  _415
REMARK  176  A    between atoms: _415  and  _416
REMARK  177  A    between atoms: _419  and  _421
REMARK  178  A    between atoms: _421  and  _422
REMARK  179  A    between atoms: _421  and  _424
REMARK  180  A    between atoms: _424  and  _425
REMARK  181  A    between atoms: _428  and  _430
REMARK  182  A    between atoms: _430  and  _431
REMARK  183  A    between atoms: _430  and  _433
REMARK  184  A    between atoms: _433  and  _434
REMARK  185  A    between atoms: _439  and  _441
REMARK  186  A    between atoms: _441  and  _442
REMARK  187  A    between atoms: _441  and  _444
REMARK  188  A    between atoms: _444  and  _445
REMARK  189  A    between atoms: _451  and  _453
REMARK  190  A    between atoms: _453  and  _454
REMARK  191  A    between atoms: _456  and  _458
REMARK  192  A    between atoms: _458  and  _459
REMARK  193  A    between atoms: _458  and  _461
REMARK  194  A    between atoms: _464  and  _466
REMARK  195  A    between atoms: _466  and  _467
REMARK  196  A    between atoms: _466  and  _469
REMARK  197  A    between atoms: _469  and  _470
REMARK  198  A    between atoms: _475  and  _476
REMARK  199  A    between atoms: _478  and  _480
REMARK  200  A    between atoms: _480  and  _481
REMARK  201  A    between atoms: _480  and  _483
REMARK  202  A    between atoms: _483  and  _484
REMARK                            x       y       z     vdW  Elec       q    Type
REMARK                         _______ _______ _______ _____ _____    ______ ____
ROOT
ATOM      1  CA  VAL A   1      17.693  26.958  26.322  0.00  0.00    +0.133 C 
ENDROOT
BRANCH   1   2
ATOM      2  CB  VAL A   1      16.453  27.500  27.080  0.00  0.00    +0.023 C 
ATOM      3  CG2 VAL A   1      16.859  28.025  28.454  0.00  0.00    +0.002 C 
ATOM      4  CG1 VAL A   1      15.412  26.395  27.228  0.00  0.00    +0.002 C 
ENDBRANCH   1   2
BRANCH   1   5
ATOM      5  N   VAL A   1      18.348  25.885  27.067  0.00  0.00    -0.239 NA
ATOM      6  H   VAL A   1      18.747  26.088  28.006  0.00  0.00    +0.142 HD
ENDBRANCH   1   5
BRANCH   1   7
ATOM      7  C   VAL A   1      18.707  28.079  26.127  0.00  0.00    +0.224 C 
ATOM      8  O   VAL A   1      19.565  28.294  26.977  0.00  0.00    -0.287 OA
ENDBRANCH   1   7
TORSDOF 3
REMARK  Name = ../refined-set-2016/4ish/4ish_pocket.pdb
REMARK  202 active torsions:
REMARK  status: ('A' for Active; 'I' for Inactive)
REMARK    1  A    between atoms: _1  and  _5
REMARK    2  A    between atoms: _5  and  _6
REMARK    3  A    between atoms: _5  and  _8
REMARK    4  A    between atoms: _8  and  _9
REMARK    5  A    between atoms: _12  and  _14
REMARK    6  A    between atoms: _14  and  _15
REMARK    7  A    between atoms: _14  and  _17
REMARK    8  A    between atoms: _20  and  _22
REMARK    9  A    between atoms: _22  and  _23
REMARK   10  A    between atoms: _22  and  _25
REMARK   11  A    between atoms: _25  and  _26
REMARK   12  A    between atoms: _26  and  _27
REMARK   13  A    between atoms: _32  and  _34
REMARK   14  A    between atoms: _34  and  _35
REMARK   15  A    between atoms: _34  and  _37
REMARK   16  A    between atoms: _37  and  _38
REMARK   17  A    between atoms: _41  and  _43
REMARK   18  A    between atoms: _43  and  _44
REMARK   19  A    between atoms: _43  and  _46
REMARK   20  A    between atoms: _46  and  _47
REMARK   21  A    between atoms: _47  and  _77
REMARK   22  A    between atoms: _48  and  _50
REMARK   23  A    between atoms: _50  and  _51
REMARK   24  A    between atoms: _54  and  _56
REMARK   25  A    between atoms: _56  and  _57
REMARK   26  A    between atoms: _60  and  _62
REMARK   27  A    between atoms: _62  and  _63
REMARK   28  A    between atoms: _62  and  _65
REMARK   29  A    between atoms: _65  and  _66
REMARK   30  A    between atoms: _71  and  _73
REMARK   31  A    between atoms: _73  and  _74
REMARK   32  A    between atoms: _73  and  _76
REMARK   33  A    between atoms: _76  and  _77
REMARK   34  A    between atoms: _78  and  _80
REMARK   35  A    between atoms: _80  and  _81
REMARK   36  A    between atoms: _80  and  _83
REMARK   37  A    between atoms: _83  and  _84
REMARK   38  A    between atoms: _90  and  _92
REMARK   39  A    between atoms: _92  and  _93
REMARK   40  A    between atoms: _92  and  _95
REMARK   41  A    between atoms: _95  and  _96
REMARK   42  A    between atoms: _99  and  _101
REMARK   43  A    between atoms: _101  and  _102
REMARK   44  A    between atoms: _101  and  _104
REMARK   45  A    between atoms: _104  and  _105
REMARK   46  A    between atoms: _105  and  _106
REMARK   47  A    between atoms: _106  and  _107
REMARK   48  A    between atoms: _107  and  _108
REMARK   49  A    between atoms: _112  and  _114
REMARK   50  A    between atoms: _114  and  _115
REMARK   51  A    between atoms: _114  and  _117
REMARK   52  A    between atoms: _117  and  _118
REMARK   53  A    between atoms: _123  and  _124
REMARK   54  A    between atoms: _126  and  _128
REMARK   55  A    between atoms: _128  and  _129
REMARK   56  A    between atoms: _128  and  _131
REMARK   57  A    between atoms: _135  and  _136
REMARK   58  A    between atoms: _141  and  _143
REMARK   59  A    between atoms: _143  and  _144
REMARK   60  A    between atoms: _146  and  _148
REMARK   61  A    between atoms: _148  and  _149
REMARK   62  A    between atoms: _148  and  _151
REMARK   63  A    between atoms: _151  and  _152
REMARK   64  A    between atoms: _155  and  _157
REMARK   65  A    between atoms: _157  and  _158
REMARK   66  A    between atoms: _157  and  _160
REMARK   67  A    between atoms: _160  and  _161
REMARK   68  A    between atoms: _164  and  _166
REMARK   69  A    between atoms: _166  and  _167
REMARK   70  A    between atoms: _166  and  _169
REMARK   71  A    between atoms: _169  and  _170
REMARK   72  A    between atoms: _175  and  _177
REMARK   73  A    between atoms: _177  and  _178
REMARK   74  A    between atoms: _177  and  _180
REMARK   75  A    between atoms: _180  and  _181
REMARK   76  A    between atoms: _184  and  _186
REMARK   77  A    between atoms: _186  and  _187
REMARK   78  A    between atoms: _186  and  _189
REMARK   79  A    between atoms: _192  and  _194
REMARK   80  A    between atoms: _194  and  _195
REMARK   81  A    between atoms: _194  and  _197
REMARK   82  A    between atoms: _197  and  _198
REMARK   83  A    between atoms: _198  and  _199
REMARK   84  A    between atoms: _204  and  _206
REMARK   85  A    between atoms: _206  and  _207
REMARK   86  A    between atoms: _206  and  _209
REMARK   87  A    between atoms: _209  and  _210
REMARK   88  A    between atoms: _213  and  _215
REMARK   89  A    between atoms: _215  and  _216
REMARK   90  A    between atoms: _215  and  _218
REMARK   91  A    between atoms: _218  and  _219
REMARK   92  A    between atoms: _219  and  _220
REMARK   93  A    between atoms: _220  and  _221
REMARK   94  A    between atoms: _230  and  _232
REMARK   95  A    between atoms: _232  and  _233
REMARK   96  A    between atoms: _232  and  _235
REMARK   97  A    between atoms: _235  and  _236
REMARK   98  A    between atoms: _240  and  _241
REMARK   99  A    between atoms: _246  and  _248
REMARK  100  A    between atoms: _248  and  _249
REMARK  101  A    between atoms: _248  and  _251
REMARK  102  A    between atoms: _251  and  _252
REMARK  103  A    between atoms: _252  and  _253
REMARK  104  A    between atoms: _255  and  _257
REMARK  105  A    between atoms: _257  and  _258
REMARK  106  A    between atoms: _261  and  _263
REMARK  107  A    between atoms: _263  and  _264
REMARK  108  A    between atoms: _263  and  _266
REMARK  109  A    between atoms: _266  and  _267
REMARK  110  A    between atoms: _267  and  _268
REMARK  111  A    between atoms: _268  and  _269
REMARK  112  A    between atoms: _269  and  _270
REMARK  113  A    between atoms: _274  and  _276
REMARK  114  A    between atoms: _276  and  _277
REMARK  115  A    between atoms: _276  and  _279
REMARK  116  A    between atoms: _279  and  _280
REMARK  117  A    between atoms: _283  and  _285
REMARK  118  A    between atoms: _285  and  _286
REMARK  119  A    between atoms: _285  and  _288
REMARK  120  A    between atoms: _288  and  _289
REMARK  121  A    between atoms: _291  and  _293
REMARK  122  A    between atoms: _293  and  _294
REMARK  123  A    between atoms: _293  and  _296
REMARK  124  A    between atoms: _296  and  _297
REMARK  125  A    between atoms: _297  and  _412
REMARK  126  A    between atoms: _298  and  _300
REMARK  127  A    between atoms: _300  and  _301
REMARK  128  A    between atoms: _300  and  _303
REMARK  129  A    between atoms: _303  and  _304
REMARK  130  A    between atoms: _304  and  _305
REMARK  131  A    between atoms: _305  and  _306
REMARK  132  A    between atoms: _306  and  _307
REMARK  133  A    between atoms: _311  and  _313
REMARK  134  A    between atoms: _313  and  _314
REMARK  135  A    between atoms: _316  and  _318
REMARK  136  A    between atoms: _318  and  _319
REMARK  137  A    between atoms: _318  and  _321
REMARK  138  A    between atoms: _321  and  _322
REMARK  139  A    between atoms: _325  and  _327
REMARK  140  A    between atoms: _327  and  _328
REMARK  141  A    between atoms: _327  and  _330
REMARK  142  A    between atoms: _330  and  _331
REMARK  143  A    between atoms: _333  and  _335
REMARK  144  A    between atoms: _335  and  _336
REMARK  145  A    between atoms: _338  and  _340
REMARK  146  A    between atoms: _340  and  _341
REMARK  147  A    between atoms: _343  and  _345
REMARK  148  A    between atoms: _345  and  _346
REMARK  149  A    between atoms: _345  and  _348
REMARK  150  A    between atoms: _348  and  _349
REMARK  151  A    between atoms: _352  and  _354
REMARK  152  A    between atoms: _354  and  _355
REMARK  153  A    between atoms: _354  and  _357
REMARK  154  A    between atoms: _360  and  _362
REMARK  155  A    between atoms: _362  and  _363
REMARK  156  A    between atoms: _362  and  _365
REMARK  157  A    between atoms: _365  and  _366
REMARK  158  A    between atoms: _368  and  _370
REMARK  159  A    between atoms: _370  and  _371
REMARK  160  A    between atoms: _370  and  _373
REMARK  161  A    between atoms: _373  and  _374
REMARK  162  A    between atoms: _384  and  _386
REMARK  163  A    between atoms: _386  and  _387
REMARK  164  A    between atoms: _389  and  _391
REMARK  165  A    between atoms: _391  and  _392
REMARK  166  A    between atoms: _391  and  _394
REMARK  167  A    between atoms: _394  and  _395
REMARK  168  A    between atoms: _395  and  _396
REMARK  169  A    between atoms: _401  and  _403
REMARK  170  A    between atoms: _403  and  _404
REMARK  171  A    between atoms: _406  and  _408
REMARK  172  A    between atoms: _408  and  _409
REMARK  173  A    between atoms: _408  and  _411
REMARK  174  A    between atoms: _411  and  _412
REMARK  175  A    between atoms: _413  and  _415
REMARK  176  A    between atoms: _415  and  _416
REMARK  177  A    between atoms: _419  and  _421
REMARK  178  A    between atoms: _421  and  _422
REMARK  179  A    between atoms: _421  and  _424
REMARK  180  A    between atoms: _424  and  _425
REMARK  181  A    between atoms: _428  and  _430
REMARK  182  A    between atoms: _430  and  _431
REMARK  183  A    between atoms: _430  and  _433
REMARK  184  A    between atoms: _433  and  _434
REMARK  185  A    between atoms: _439  and  _441
REMARK  186  A    between atoms: _441  and  _442
REMARK  187  A    between atoms: _441  and  _444
REMARK  188  A    between atoms: _444  and  _445
REMARK  189  A    between atoms: _451  and  _453
REMARK  190  A    between atoms: _453  and  _454
REMARK  191  A    between atoms: _456  and  _458
REMARK  192  A    between atoms: _458  and  _459
REMARK  193  A    between atoms: _458  and  _461
REMARK  194  A    between atoms: _464  and  _466
REMARK  195  A    between atoms: _466  and  _467
REMARK  196  A    between atoms: _466  and  _469
REMARK  197  A    between atoms: _469  and  _470
REMARK  198  A    between atoms: _475  and  _476
REMARK  199  A    between atoms: _478  and  _480
REMARK  200  A    between atoms: _480  and  _481
REMARK  201  A    between atoms: _480  and  _483
REMARK  202  A    between atoms: _483  and  _484
REMARK                            x       y       z     vdW  Elec       q    Type
REMARK                         _______ _______ _______ _____ _____    ______ ____
ROOT
ATOM      1  CB  GLN A   1      16.412  40.497  29.005  0.00  0.00    +0.035 C 
ENDROOT
BRANCH   1   2
ATOM      2  CA  GLN A   1      17.707  39.921  28.415  0.00  0.00    +0.134 C 
BRANCH   2   3
ATOM      3  N   GLN A   1      17.394  39.153  27.216  0.00  0.00    -0.239 NA
ATOM      4  H   GLN A   1      16.397  39.052  26.937  0.00  0.00    +0.142 HD
ENDBRANCH   2   3
BRANCH   2   5
ATOM      5  C   GLN A   1      18.421  39.065  29.460  0.00  0.00    +0.224 C 
ATOM      6  O   GLN A   1      18.053  37.910  29.696  0.00  0.00    -0.287 OA
ENDBRANCH   2   5
ENDBRANCH   1   2
BRANCH   1   7
ATOM      7  CG  GLN A   1      15.707  41.536  28.125  0.00  0.00    +0.087 C 
BRANCH   7   8
ATOM      8  CD  GLN A   1      14.980  40.936  26.917  0.00  0.00    +0.219 C 
ATOM      9  OE1 GLN A   1      14.711  39.733  26.861  0.00  0.00    -0.275 OA
ATOM     10  NE2 GLN A   1      14.661  41.784  25.946  0.00  0.00    -0.329 N 
ATOM     11 HE21 GLN A   1      14.907  42.791  26.033  0.00  0.00    +0.145 HD
ATOM     12 HE22 GLN A   1      14.166  41.441  25.098  0.00  0.00    +0.145 HD
ENDBRANCH   7   8
ENDBRANCH   1   7
TORSDOF 5
REMARK  Name = ../refined-set-2016/4ish/4ish_pocket.pdb
REMARK  202 active torsions:
REMARK  status: ('A' for Active; 'I' for Inactive)
REMARK    1  A    between atoms: _1  and  _5
REMARK    2  A    between atoms: _5  and  _6
REMARK    3  A    between atoms: _5  and  _8
REMARK    4  A    between atoms: _8  and  _9
REMARK    5  A    between atoms: _12  and  _14
REMARK    6  A    between atoms: _14  and  _15
REMARK    7  A    between atoms: _14  and  _17
REMARK    8  A    between atoms: _20  and  _22
REMARK    9  A    between atoms: _22  and  _23
REMARK   10  A    between atoms: _22  and  _25
REMARK   11  A    between atoms: _25  and  _26
REMARK   12  A    between atoms: _26  and  _27
REMARK   13  A    between atoms: _32  and  _34
REMARK   14  A    between atoms: _34  and  _35
REMARK   15  A    between atoms: _34  and  _37
REMARK   16  A    between atoms: _37  and  _38
REMARK   17  A    between atoms: _41  and  _43
REMARK   18  A    between atoms: _43  and  _44
REMARK   19  A    between atoms: _43  and  _46
REMARK   20  A    between atoms: _46  and  _47
REMARK   21  A    between atoms: _47  and  _77
REMARK   22  A    between atoms: _48  and  _50
REMARK   23  A    between atoms: _50  and  _51
REMARK   24  A    between atoms: _54  and  _56
REMARK   25  A    between atoms: _56  and  _57
REMARK   26  A    between atoms: _60  and  _62
REMARK   27  A    between atoms: _62  and  _63
REMARK   28  A    between atoms: _62  and  _65
REMARK   29  A    between atoms: _65  and  _66
REMARK   30  A    between atoms: _71  and  _73
REMARK   31  A    between atoms: _73  and  _74
REMARK   32  A    between atoms: _73  and  _76
REMARK   33  A    between atoms: _76  and  _77
REMARK   34  A    between atoms: _78  and  _80
REMARK   35  A    between atoms: _80  and  _81
REMARK   36  A    between atoms: _80  and  _83
REMARK   37  A    between atoms: _83  and  _84
REMARK   38  A    between atoms: _90  and  _92
REMARK   39  A    between atoms: _92  and  _93
REMARK   40  A    between atoms: _92  and  _95
REMARK   41  A    between atoms: _95  and  _96
REMARK   42  A    between atoms: _99  and  _101
REMARK   43  A    between atoms: _101  and  _102
REMARK   44  A    between atoms: _101  and  _104
REMARK   45  A    between atoms: _104  and  _105
REMARK   46  A    between atoms: _105  and  _106
REMARK   47  A    between atoms: _106  and  _107
REMARK   48  A    between atoms: _107  and  _108
REMARK   49  A    between atoms: _112  and  _114
REMARK   50  A    between atoms: _114  and  _115
REMARK   51  A    between atoms: _114  and  _117
REMARK   52  A    between atoms: _117  and  _118
REMARK   53  A    between atoms: _123  and  _124
REMARK   54  A    between atoms: _126  and  _128
REMARK   55  A    between atoms: _128  and  _129
REMARK   56  A    between atoms: _128  and  _131
REMARK   57  A    between atoms: _135  and  _136
REMARK   58  A    between atoms: _141  and  _143
REMARK   59  A    between atoms: _143  and  _144
REMARK   60  A    between atoms: _146  and  _148
REMARK   61  A    between atoms: _148  and  _149
REMARK   62  A    between atoms: _148  and  _151
REMARK   63  A    between atoms: _151  and  _152
REMARK   64  A    between atoms: _155  and  _157
REMARK   65  A    between atoms: _157  and  _158
REMARK   66  A    between atoms: _157  and  _160
REMARK   67  A    between atoms: _160  and  _161
REMARK   68  A    between atoms: _164  and  _166
REMARK   69  A    between atoms: _166  and  _167
REMARK   70  A    between atoms: _166  and  _169
REMARK   71  A    between atoms: _169  and  _170
REMARK   72  A    between atoms: _175  and  _177
REMARK   73  A    between atoms: _177  and  _178
REMARK   74  A    between atoms: _177  and  _180
REMARK   75  A    between atoms: _180  and  _181
REMARK   76  A    between atoms: _184  and  _186
REMARK   77  A    between atoms: _186  and  _187
REMARK   78  A    between atoms: _186  and  _189
REMARK   79  A    between atoms: _192  and  _194
REMARK   80  A    between atoms: _194  and  _195
REMARK   81  A    between atoms: _194  and  _197
REMARK   82  A    between atoms: _197  and  _198
REMARK   83  A    between atoms: _198  and  _199
REMARK   84  A    between atoms: _204  and  _206
REMARK   85  A    between atoms: _206  and  _207
REMARK   86  A    between atoms: _206  and  _209
REMARK   87  A    between atoms: _209  and  _210
REMARK   88  A    between atoms: _213  and  _215
REMARK   89  A    between atoms: _215  and  _216
REMARK   90  A    between atoms: _215  and  _218
REMARK   91  A    between atoms: _218  and  _219
REMARK   92  A    between atoms: _219  and  _220
REMARK   93  A    between atoms: _220  and  _221
REMARK   94  A    between atoms: _230  and  _232
REMARK   95  A    between atoms: _232  and  _233
REMARK   96  A    between atoms: _232  and  _235
REMARK   97  A    between atoms: _235  and  _236
REMARK   98  A    between atoms: _240  and  _241
REMARK   99  A    between atoms: _246  and  _248
REMARK  100  A    between atoms: _248  and  _249
REMARK  101  A    between atoms: _248  and  _251
REMARK  102  A    between atoms: _251  and  _252
REMARK  103  A    between atoms: _252  and  _253
REMARK  104  A    between atoms: _255  and  _257
REMARK  105  A    between atoms: _257  and  _258
REMARK  106  A    between atoms: _261  and  _263
REMARK  107  A    between atoms: _263  and  _264
REMARK  108  A    between atoms: _263  and  _266
REMARK  109  A    between atoms: _266  and  _267
REMARK  110  A    between atoms: _267  and  _268
REMARK  111  A    between atoms: _268  and  _269
REMARK  112  A    between atoms: _269  and  _270
REMARK  113  A    between atoms: _274  and  _276
REMARK  114  A    between atoms: _276  and  _277
REMARK  115  A    between atoms: _276  and  _279
REMARK  116  A    between atoms: _279  and  _280
REMARK  117  A    between atoms: _283  and  _285
REMARK  118  A    between atoms: _285  and  _286
REMARK  119  A    between atoms: _285  and  _288
REMARK  120  A    between atoms: _288  and  _289
REMARK  121  A    between atoms: _291  and  _293
REMARK  122  A    between atoms: _293  and  _294
REMARK  123  A    between atoms: _293  and  _296
REMARK  124  A    between atoms: _296  and  _297
REMARK  125  A    between atoms: _297  and  _412
REMARK  126  A    between atoms: _298  and  _300
REMARK  127  A    between atoms: _300  and  _301
REMARK  128  A    between atoms: _300  and  _303
REMARK  129  A    between atoms: _303  and  _304
REMARK  130  A    between atoms: _304  and  _305
REMARK  131  A    between atoms: _305  and  _306
REMARK  132  A    between atoms: _306  and  _307
REMARK  133  A    between atoms: _311  and  _313
REMARK  134  A    between atoms: _313  and  _314
REMARK  135  A    between atoms: _316  and  _318
REMARK  136  A    between atoms: _318  and  _319
REMARK  137  A    between atoms: _318  and  _321
REMARK  138  A    between atoms: _321  and  _322
REMARK  139  A    between atoms: _325  and  _327
REMARK  140  A    between atoms: _327  and  _328
REMARK  141  A    between atoms: _327  and  _330
REMARK  142  A    between atoms: _330  and  _331
REMARK  143  A    between atoms: _333  and  _335
REMARK  144  A    between atoms: _335  and  _336
REMARK  145  A    between atoms: _338  and  _340
REMARK  146  A    between atoms: _340  and  _341
REMARK  147  A    between atoms: _343  and  _345
REMARK  148  A    between atoms: _345  and  _346
REMARK  149  A    between atoms: _345  and  _348
REMARK  150  A    between atoms: _348  and  _349
REMARK  151  A    between atoms: _352  and  _354
REMARK  152  A    between atoms: _354  and  _355
REMARK  153  A    between atoms: _354  and  _357
REMARK  154  A    between atoms: _360  and  _362
REMARK  155  A    between atoms: _362  and  _363
REMARK  156  A    between atoms: _362  and  _365
REMARK  157  A    between atoms: _365  and  _366
REMARK  158  A    between atoms: _368  and  _370
REMARK  159  A    between atoms: _370  and  _371
REMARK  160  A    between atoms: _370  and  _373
REMARK  161  A    between atoms: _373  and  _374
REMARK  162  A    between atoms: _384  and  _386
REMARK  163  A    between atoms: _386  and  _387
REMARK  164  A    between atoms: _389  and  _391
REMARK  165  A    between atoms: _391  and  _392
REMARK  166  A    between atoms: _391  and  _394
REMARK  167  A    between atoms: _394  and  _395
REMARK  168  A    between atoms: _395  and  _396
REMARK  169  A    between atoms: _401  and  _403
REMARK  170  A    between atoms: _403  and  _404
REMARK  171  A    between atoms: _406  and  _408
REMARK  172  A    between atoms: _408  and  _409
REMARK  173  A    between atoms: _408  and  _411
REMARK  174  A    between atoms: _411  and  _412
REMARK  175  A    between atoms: _413  and  _415
REMARK  176  A    between atoms: _415  and  _416
REMARK  177  A    between atoms: _419  and  _421
REMARK  178  A    between atoms: _421  and  _422
REMARK  179  A    between atoms: _421  and  _424
REMARK  180  A    between atoms: _424  and  _425
REMARK  181  A    between atoms: _428  and  _430
REMARK  182  A    between atoms: _430  and  _431
REMARK  183  A    between atoms: _430  and  _433
REMARK  184  A    between atoms: _433  and  _434
REMARK  185  A    between atoms: _439  and  _441
REMARK  186  A    between atoms: _441  and  _442
REMARK  187  A    between atoms: _441  and  _444
REMARK  188  A    between atoms: _444  and  _445
REMARK  189  A    between atoms: _451  and  _453
REMARK  190  A    between atoms: _453  and  _454
REMARK  191  A    between atoms: _456  and  _458
REMARK  192  A    between atoms: _458  and  _459
REMARK  193  A    between atoms: _458  and  _461
REMARK  194  A    between atoms: _464  and  _466
REMARK  195  A    between atoms: _466  and  _467
REMARK  196  A    between atoms: _466  and  _469
REMARK  197  A    between atoms: _469  and  _470
REMARK  198  A    between atoms: _475  and  _476
REMARK  199  A    between atoms: _478  and  _480
REMARK  200  A    between atoms: _480  and  _481
REMARK  201  A    between atoms: _480  and  _483
REMARK  202  A    between atoms: _483  and  _484
REMARK                            x       y       z     vdW  Elec       q    Type
REMARK                         _______ _______ _______ _____ _____    ______ ____
ROOT
ATOM      1  CA  ARG A   2      13.827  44.669  32.585  0.00  0.00    +0.137 C 
ENDROOT
BRANCH   1   4
ATOM      2  C   ASP A   1      14.165  42.571  33.795  0.00  0.00    +0.239 C 
ATOM      3  O   ASP A   1      14.713  43.135  34.743  0.00  0.00    -0.274 OA
ATOM      4  N   ARG A   2      13.692  43.223  32.737  0.00  0.00    -0.298 N 
ATOM      5  H   ARG A   2      13.208  42.684  31.991  0.00  0.00    +0.150 HD
BRANCH   2   6
ATOM      6  CA  ASP A   1      14.023  41.048  33.772  0.00  0.00    +0.156 C 
BRANCH   6   7
ATOM      7  N   ASP A   1      15.330  40.477  34.074  0.00  0.00    -0.238 NA
ATOM      8  H   ASP A   1      15.443  39.861  34.904  0.00  0.00    +0.142 HD
ENDBRANCH   6   7
BRANCH   6   9
ATOM      9  CB  ASP A   1      12.994  40.601  34.815  0.00  0.00    +0.140 C 
BRANCH   9  10
ATOM     10  CG  ASP A   1      11.561  40.738  34.323  0.00  0.00    +0.367 C 
ATOM     11  OD2 ASP A   1      10.644  40.272  35.029  0.00  0.00    -0.246 OA
ATOM     12  OD1 ASP A   1      11.349  41.308  33.230  0.00  0.00    -0.246 OA
ENDBRANCH   9  10
ENDBRANCH   6   9
ENDBRANCH   2   6
ENDBRANCH   1   4
BRANCH   1  13
ATOM     13  C   ARG A   2      15.284  45.132  32.483  0.00  0.00    +0.227 C 
ATOM     14  O   ARG A   2      15.605  46.279  32.802  0.00  0.00    -0.286 OA
ENDBRANCH   1  13
BRANCH   1  15
ATOM     15  CB  ARG A   2      13.118  45.384  33.745  0.00  0.00    +0.031 C 
BRANCH  15  16
ATOM     16  CG  ARG A   2      11.609  45.155  33.754  0.00  0.00    +0.045 C 
BRANCH  16  17
ATOM     17  CD  ARG A   2      10.898  45.971  34.825  0.00  0.00    +0.174 C 
BRANCH  17  18
ATOM     18  NE  ARG A   2      11.080  45.406  36.161  0.00  0.00    -0.265 N 
ATOM     19  CZ  ARG A   2      10.296  45.675  37.203  0.00  0.00    +0.342 C 
ATOM     20  NH2 ARG A   2      10.541  45.114  38.380  0.00  0.00    -0.292 N 
ATOM     21 HH21 ARG A   2       9.929  45.324  39.194  0.00  0.00    +0.255 HD
ATOM     22 HH22 ARG A   2      11.346  44.464  38.489  0.00  0.00    +0.255 HD
ATOM     23  NH1 ARG A   2       9.268  46.503  37.072  0.00  0.00    -0.292 N 
ATOM     24 HH11 ARG A   2       8.659  46.709  37.889  0.00  0.00    +0.255 HD
ATOM     25 HH12 ARG A   2       9.071  46.946  36.152  0.00  0.00    +0.255 HD
ATOM     26  HE  ARG A   2      11.874  44.751  36.307  0.00  0.00    +0.259 HD
ENDBRANCH  17  18
ENDBRANCH  16  17
ENDBRANCH  15  16
ENDBRANCH   1  15
TORSDOF 10
REMARK  Name = ../refined-set-2016/4ish/4ish_pocket.pdb
REMARK  202 active torsions:
REMARK  status: ('A' for Active; 'I' for Inactive)
REMARK    1  A    between atoms: _1  and  _5
REMARK    2  A    between atoms: _5  and  _6
REMARK    3  A    between atoms: _5  and  _8
REMARK    4  A    between atoms: _8  and  _9
REMARK    5  A    between atoms: _12  and  _14
REMARK    6  A    between atoms: _14  and  _15
REMARK    7  A    between atoms: _14  and  _17
REMARK    8  A    between atoms: _20  and  _22
REMARK    9  A    between atoms: _22  and  _23
REMARK   10  A    between atoms: _22  and  _25
REMARK   11  A    between atoms: _25  and  _26
REMARK   12  A    between atoms: _26  and  _27
REMARK   13  A    between atoms: _32  and  _34
REMARK   14  A    between atoms: _34  and  _35
REMARK   15  A    between atoms: _34  and  _37
REMARK   16  A    between atoms: _37  and  _38
REMARK   17  A    between atoms: _41  and  _43
REMARK   18  A    between atoms: _43  and  _44
REMARK   19  A    between atoms: _43  and  _46
REMARK   20  A    between atoms: _46  and  _47
REMARK   21  A    between atoms: _47  and  _77
REMARK   22  A    between atoms: _48  and  _50
REMARK   23  A    between atoms: _50  and  _51
REMARK   24  A    between atoms: _54  and  _56
REMARK   25  A    between atoms: _56  and  _57
REMARK   26  A    between atoms: _60  and  _62
REMARK   27  A    between atoms: _62  and  _63
REMARK   28  A    between atoms: _62  and  _65
REMARK   29  A    between atoms: _65  and  _66
REMARK   30  A    between atoms: _71  and  _73
REMARK   31  A    between atoms: _73  and  _74
REMARK   32  A    between atoms: _73  and  _76
REMARK   33  A    between atoms: _76  and  _77
REMARK   34  A    between atoms: _78  and  _80
REMARK   35  A    between atoms: _80  and  _81
REMARK   36  A    between atoms: _80  and  _83
REMARK   37  A    between atoms: _83  and  _84
REMARK   38  A    between atoms: _90  and  _92
REMARK   39  A    between atoms: _92  and  _93
REMARK   40  A    between atoms: _92  and  _95
REMARK   41  A    between atoms: _95  and  _96
REMARK   42  A    between atoms: _99  and  _101
REMARK   43  A    between atoms: _101  and  _102
REMARK   44  A    between atoms: _101  and  _104
REMARK   45  A    between atoms: _104  and  _105
REMARK   46  A    between atoms: _105  and  _106
REMARK   47  A    between atoms: _106  and  _107
REMARK   48  A    between atoms: _107  and  _108
REMARK   49  A    between atoms: _112  and  _114
REMARK   50  A    between atoms: _114  and  _115
REMARK   51  A    between atoms: _114  and  _117
REMARK   52  A    between atoms: _117  and  _118
REMARK   53  A    between atoms: _123  and  _124
REMARK   54  A    between atoms: _126  and  _128
REMARK   55  A    between atoms: _128  and  _129
REMARK   56  A    between atoms: _128  and  _131
REMARK   57  A    between atoms: _135  and  _136
REMARK   58  A    between atoms: _141  and  _143
REMARK   59  A    between atoms: _143  and  _144
REMARK   60  A    between atoms: _146  and  _148
REMARK   61  A    between atoms: _148  and  _149
REMARK   62  A    between atoms: _148  and  _151
REMARK   63  A    between atoms: _151  and  _152
REMARK   64  A    between atoms: _155  and  _157
REMARK   65  A    between atoms: _157  and  _158
REMARK   66  A    between atoms: _157  and  _160
REMARK   67  A    between atoms: _160  and  _161
REMARK   68  A    between atoms: _164  and  _166
REMARK   69  A    between atoms: _166  and  _167
REMARK   70  A    between atoms: _166  and  _169
REMARK   71  A    between atoms: _169  and  _170
REMARK   72  A    between atoms: _175  and  _177
REMARK   73  A    between atoms: _177  and  _178
REMARK   74  A    between atoms: _177  and  _180
REMARK   75  A    between atoms: _180  and  _181
REMARK   76  A    between atoms: _184  and  _186
REMARK   77  A    between atoms: _186  and  _187
REMARK   78  A    between atoms: _186  and  _189
REMARK   79  A    between atoms: _192  and  _194
REMARK   80  A    between atoms: _194  and  _195
REMARK   81  A    between atoms: _194  and  _197
REMARK   82  A    between atoms: _197  and  _198
REMARK   83  A    between atoms: _198  and  _199
REMARK   84  A    between atoms: _204  and  _206
REMARK   85  A    between atoms: _206  and  _207
REMARK   86  A    between atoms: _206  and  _209
REMARK   87  A    between atoms: _209  and  _210
REMARK   88  A    between atoms: _213  and  _215
REMARK   89  A    between atoms: _215  and  _216
REMARK   90  A    between atoms: _215  and  _218
REMARK   91  A    between atoms: _218  and  _219
REMARK   92  A    between atoms: _219  and  _220
REMARK   93  A    between atoms: _220  and  _221
REMARK   94  A    between atoms: _230  and  _232
REMARK   95  A    between atoms: _232  and  _233
REMARK   96  A    between atoms: _232  and  _235
REMARK   97  A    between atoms: _235  and  _236
REMARK   98  A    between atoms: _240  and  _241
REMARK   99  A    between atoms: _246  and  _248
REMARK  100  A    between atoms: _248  and  _249
REMARK  101  A    between atoms: _248  and  _251
REMARK  102  A    between atoms: _251  and  _252
REMARK  103  A    between atoms: _252  and  _253
REMARK  104  A    between atoms: _255  and  _257
REMARK  105  A    between atoms: _257  and  _258
REMARK  106  A    between atoms: _261  and  _263
REMARK  107  A    between atoms: _263  and  _264
REMARK  108  A    between atoms: _263  and  _266
REMARK  109  A    between atoms: _266  and  _267
REMARK  110  A    between atoms: _267  and  _268
REMARK  111  A    between atoms: _268  and  _269
REMARK  112  A    between atoms: _269  and  _270
REMARK  113  A    between atoms: _274  and  _276
REMARK  114  A    between atoms: _276  and  _277
REMARK  115  A    between atoms: _276  and  _279
REMARK  116  A    between atoms: _279  and  _280
REMARK  117  A    between atoms: _283  and  _285
REMARK  118  A    between atoms: _285  and  _286
REMARK  119  A    between atoms: _285  and  _288
REMARK  120  A    between atoms: _288  and  _289
REMARK  121  A    between atoms: _291  and  _293
REMARK  122  A    between atoms: _293  and  _294
REMARK  123  A    between atoms: _293  and  _296
REMARK  124  A    between atoms: _296  and  _297
REMARK  125  A    between atoms: _297  and  _412
REMARK  126  A    between atoms: _298  and  _300
REMARK  127  A    between atoms: _300  and  _301
REMARK  128  A    between atoms: _300  and  _303
REMARK  129  A    between atoms: _303  and  _304
REMARK  130  A    between atoms: _304  and  _305
REMARK  131  A    between atoms: _305  and  _306
REMARK  132  A    between atoms: _306  and  _307
REMARK  133  A    between atoms: _311  and  _313
REMARK  134  A    between atoms: _313  and  _314
REMARK  135  A    between atoms: _316  and  _318
REMARK  136  A    between atoms: _318  and  _319
REMARK  137  A    between atoms: _318  and  _321
REMARK  138  A    between atoms: _321  and  _322
REMARK  139  A    between atoms: _325  and  _327
REMARK  140  A    between atoms: _327  and  _328
REMARK  141  A    between atoms: _327  and  _330
REMARK  142  A    between atoms: _330  and  _331
REMARK  143  A    between atoms: _333  and  _335
REMARK  144  A    between atoms: _335  and  _336
REMARK  145  A    between atoms: _338  and  _340
REMARK  146  A    between atoms: _340  and  _341
REMARK  147  A    between atoms: _343  and  _345
REMARK  148  A    between atoms: _345  and  _346
REMARK  149  A    between atoms: _345  and  _348
REMARK  150  A    between atoms: _348  and  _349
REMARK  151  A    between atoms: _352  and  _354
REMARK  152  A    between atoms: _354  and  _355
REMARK  153  A    between atoms: _354  and  _357
REMARK  154  A    between atoms: _360  and  _362
REMARK  155  A    between atoms: _362  and  _363
REMARK  156  A    between atoms: _362  and  _365
REMARK  157  A    between atoms: _365  and  _366
REMARK  158  A    between atoms: _368  and  _370
REMARK  159  A    between atoms: _370  and  _371
REMARK  160  A    between atoms: _370  and  _373
REMARK  161  A    between atoms: _373  and  _374
REMARK  162  A    between atoms: _384  and  _386
REMARK  163  A    between atoms: _386  and  _387
REMARK  164  A    between atoms: _389  and  _391
REMARK  165  A    between atoms: _391  and  _392
REMARK  166  A    between atoms: _391  and  _394
REMARK  167  A    between atoms: _394  and  _395
REMARK  168  A    between atoms: _395  and  _396
REMARK  169  A    between atoms: _401  and  _403
REMARK  170  A    between atoms: _403  and  _404
REMARK  171  A    between atoms: _406  and  _408
REMARK  172  A    between atoms: _408  and  _409
REMARK  173  A    between atoms: _408  and  _411
REMARK  174  A    between atoms: _411  and  _412
REMARK  175  A    between atoms: _413  and  _415
REMARK  176  A    between atoms: _415  and  _416
REMARK  177  A    between atoms: _419  and  _421
REMARK  178  A    between atoms: _421  and  _422
REMARK  179  A    between atoms: _421  and  _424
REMARK  180  A    between atoms: _424  and  _425
REMARK  181  A    between atoms: _428  and  _430
REMARK  182  A    between atoms: _430  and  _431
REMARK  183  A    between atoms: _430  and  _433
REMARK  184  A    between atoms: _433  and  _434
REMARK  185  A    between atoms: _439  and  _441
REMARK  186  A    between atoms: _441  and  _442
REMARK  187  A    between atoms: _441  and  _444
REMARK  188  A    between atoms: _444  and  _445
REMARK  189  A    between atoms: _451  and  _453
REMARK  190  A    between atoms: _453  and  _454
REMARK  191  A    between atoms: _456  and  _458
REMARK  192  A    between atoms: _458  and  _459
REMARK  193  A    between atoms: _458  and  _461
REMARK  194  A    between atoms: _464  and  _466
REMARK  195  A    between atoms: _466  and  _467
REMARK  196  A    between atoms: _466  and  _469
REMARK  197  A    between atoms: _469  and  _470
REMARK  198  A    between atoms: _475  and  _476
REMARK  199  A    between atoms: _478  and  _480
REMARK  200  A    between atoms: _480  and  _481
REMARK  201  A    between atoms: _480  and  _483
REMARK  202  A    between atoms: _483  and  _484
REMARK                            x       y       z     vdW  Elec       q    Type
REMARK                         _______ _______ _______ _____ _____    ______ ____
ROOT
ATOM      1  CA  THR A   1      20.216  42.027  26.230  0.00  0.00    +0.160 C 
ENDROOT
BRANCH   1   2
ATOM      2  N   THR A   1      20.041  43.294  26.937  0.00  0.00    -0.237 NA
ATOM      3  H   THR A   1      19.940  44.171  26.387  0.00  0.00    +0.142 HD
ENDBRANCH   1   2
BRANCH   1   4
ATOM      4  C   THR A   1      21.695  41.660  26.143  0.00  0.00    +0.227 C 
ATOM      5  O   THR A   1      22.567  42.512  26.313  0.00  0.00    -0.287 OA
ENDBRANCH   1   4
BRANCH   1   6
ATOM      6  CB  THR A   1      19.627  42.102  24.800  0.00  0.00    +0.134 C 
ATOM      7  CG2 THR A   1      18.122  42.299  24.854  0.00  0.00    +0.034 C 
BRANCH   6   8
ATOM      8  OG1 THR A   1      20.223  43.197  24.092  0.00  0.00    -0.383 OA
ATOM      9  HG1 THR A   1      19.845  43.243  23.178  0.00  0.00    +0.210 HD
ENDBRANCH   6   8
ENDBRANCH   1   6
TORSDOF 4
REMARK  Name = ../refined-set-2016/4ish/4ish_pocket.pdb
REMARK  202 active torsions:
REMARK  status: ('A' for Active; 'I' for Inactive)
REMARK    1  A    between atoms: _1  and  _5
REMARK    2  A    between atoms: _5  and  _6
REMARK    3  A    between atoms: _5  and  _8
REMARK    4  A    between atoms: _8  and  _9
REMARK    5  A    between atoms: _12  and  _14
REMARK    6  A    between atoms: _14  and  _15
REMARK    7  A    between atoms: _14  and  _17
REMARK    8  A    between atoms: _20  and  _22
REMARK    9  A    between atoms: _22  and  _23
REMARK   10  A    between atoms: _22  and  _25
REMARK   11  A    between atoms: _25  and  _26
REMARK   12  A    between atoms: _26  and  _27
REMARK   13  A    between atoms: _32  and  _34
REMARK   14  A    between atoms: _34  and  _35
REMARK   15  A    between atoms: _34  and  _37
REMARK   16  A    between atoms: _37  and  _38
REMARK   17  A    between atoms: _41  and  _43
REMARK   18  A    between atoms: _43  and  _44
REMARK   19  A    between atoms: _43  and  _46
REMARK   20  A    between atoms: _46  and  _47
REMARK   21  A    between atoms: _47  and  _77
REMARK   22  A    between atoms: _48  and  _50
REMARK   23  A    between atoms: _50  and  _51
REMARK   24  A    between atoms: _54  and  _56
REMARK   25  A    between atoms: _56  and  _57
REMARK   26  A    between atoms: _60  and  _62
REMARK   27  A    between atoms: _62  and  _63
REMARK   28  A    between atoms: _62  and  _65
REMARK   29  A    between atoms: _65  and  _66
REMARK   30  A    between atoms: _71  and  _73
REMARK   31  A    between atoms: _73  and  _74
REMARK   32  A    between atoms: _73  and  _76
REMARK   33  A    between atoms: _76  and  _77
REMARK   34  A    between atoms: _78  and  _80
REMARK   35  A    between atoms: _80  and  _81
REMARK   36  A    between atoms: _80  and  _83
REMARK   37  A    between atoms: _83  and  _84
REMARK   38  A    between atoms: _90  and  _92
REMARK   39  A    between atoms: _92  and  _93
REMARK   40  A    between atoms: _92  and  _95
REMARK   41  A    between atoms: _95  and  _96
REMARK   42  A    between atoms: _99  and  _101
REMARK   43  A    between atoms: _101  and  _102
REMARK   44  A    between atoms: _101  and  _104
REMARK   45  A    between atoms: _104  and  _105
REMARK   46  A    between atoms: _105  and  _106
REMARK   47  A    between atoms: _106  and  _107
REMARK   48  A    between atoms: _107  and  _108
REMARK   49  A    between atoms: _112  and  _114
REMARK   50  A    between atoms: _114  and  _115
REMARK   51  A    between atoms: _114  and  _117
REMARK   52  A    between atoms: _117  and  _118
REMARK   53  A    between atoms: _123  and  _124
REMARK   54  A    between atoms: _126  and  _128
REMARK   55  A    between atoms: _128  and  _129
REMARK   56  A    between atoms: _128  and  _131
REMARK   57  A    between atoms: _135  and  _136
REMARK   58  A    between atoms: _141  and  _143
REMARK   59  A    between atoms: _143  and  _144
REMARK   60  A    between atoms: _146  and  _148
REMARK   61  A    between atoms: _148  and  _149
REMARK   62  A    between atoms: _148  and  _151
REMARK   63  A    between atoms: _151  and  _152
REMARK   64  A    between atoms: _155  and  _157
REMARK   65  A    between atoms: _157  and  _158
REMARK   66  A    between atoms: _157  and  _160
REMARK   67  A    between atoms: _160  and  _161
REMARK   68  A    between atoms: _164  and  _166
REMARK   69  A    between atoms: _166  and  _167
REMARK   70  A    between atoms: _166  and  _169
REMARK   71  A    between atoms: _169  and  _170
REMARK   72  A    between atoms: _175  and  _177
REMARK   73  A    between atoms: _177  and  _178
REMARK   74  A    between atoms: _177  and  _180
REMARK   75  A    between atoms: _180  and  _181
REMARK   76  A    between atoms: _184  and  _186
REMARK   77  A    between atoms: _186  and  _187
REMARK   78  A    between atoms: _186  and  _189
REMARK   79  A    between atoms: _192  and  _194
REMARK   80  A    between atoms: _194  and  _195
REMARK   81  A    between atoms: _194  and  _197
REMARK   82  A    between atoms: _197  and  _198
REMARK   83  A    between atoms: _198  and  _199
REMARK   84  A    between atoms: _204  and  _206
REMARK   85  A    between atoms: _206  and  _207
REMARK   86  A    between atoms: _206  and  _209
REMARK   87  A    between atoms: _209  and  _210
REMARK   88  A    between atoms: _213  and  _215
REMARK   89  A    between atoms: _215  and  _216
REMARK   90  A    between atoms: _215  and  _218
REMARK   91  A    between atoms: _218  and  _219
REMARK   92  A    between atoms: _219  and  _220
REMARK   93  A    between atoms: _220  and  _221
REMARK   94  A    between atoms: _230  and  _232
REMARK   95  A    between atoms: _232  and  _233
REMARK   96  A    between atoms: _232  and  _235
REMARK   97  A    between atoms: _235  and  _236
REMARK   98  A    between atoms: _240  and  _241
REMARK   99  A    between atoms: _246  and  _248
REMARK  100  A    between atoms: _248  and  _249
REMARK  101  A    between atoms: _248  and  _251
REMARK  102  A    between atoms: _251  and  _252
REMARK  103  A    between atoms: _252  and  _253
REMARK  104  A    between atoms: _255  and  _257
REMARK  105  A    between atoms: _257  and  _258
REMARK  106  A    between atoms: _261  and  _263
REMARK  107  A    between atoms: _263  and  _264
REMARK  108  A    between atoms: _263  and  _266
REMARK  109  A    between atoms: _266  and  _267
REMARK  110  A    between atoms: _267  and  _268
REMARK  111  A    between atoms: _268  and  _269
REMARK  112  A    between atoms: _269  and  _270
REMARK  113  A    between atoms: _274  and  _276
REMARK  114  A    between atoms: _276  and  _277
REMARK  115  A    between atoms: _276  and  _279
REMARK  116  A    between atoms: _279  and  _280
REMARK  117  A    between atoms: _283  and  _285
REMARK  118  A    between atoms: _285  and  _286
REMARK  119  A    between atoms: _285  and  _288
REMARK  120  A    between atoms: _288  and  _289
REMARK  121  A    between atoms: _291  and  _293
REMARK  122  A    between atoms: _293  and  _294
REMARK  123  A    between atoms: _293  and  _296
REMARK  124  A    between atoms: _296  and  _297
REMARK  125  A    between atoms: _297  and  _412
REMARK  126  A    between atoms: _298  and  _300
REMARK  127  A    between atoms: _300  and  _301
REMARK  128  A    between atoms: _300  and  _303
REMARK  129  A    between atoms: _303  and  _304
REMARK  130  A    between atoms: _304  and  _305
REMARK  131  A    between atoms: _305  and  _306
REMARK  132  A    between atoms: _306  and  _307
REMARK  133  A    between atoms: _311  and  _313
REMARK  134  A    between atoms: _313  and  _314
REMARK  135  A    between atoms: _316  and  _318
REMARK  136  A    between atoms: _318  and  _319
REMARK  137  A    between atoms: _318  and  _321
REMARK  138  A    between atoms: _321  and  _322
REMARK  139  A    between atoms: _325  and  _327
REMARK  140  A    between atoms: _327  and  _328
REMARK  141  A    between atoms: _327  and  _330
REMARK  142  A    between atoms: _330  and  _331
REMARK  143  A    between atoms: _333  and  _335
REMARK  144  A    between atoms: _335  and  _336
REMARK  145  A    between atoms: _338  and  _340
REMARK  146  A    between atoms: _340  and  _341
REMARK  147  A    between atoms: _343  and  _345
REMARK  148  A    between atoms: _345  and  _346
REMARK  149  A    between atoms: _345  and  _348
REMARK  150  A    between atoms: _348  and  _349
REMARK  151  A    between atoms: _352  and  _354
REMARK  152  A    between atoms: _354  and  _355
REMARK  153  A    between atoms: _354  and  _357
REMARK  154  A    between atoms: _360  and  _362
REMARK  155  A    between atoms: _362  and  _363
REMARK  156  A    between atoms: _362  and  _365
REMARK  157  A    between atoms: _365  and  _366
REMARK  158  A    between atoms: _368  and  _370
REMARK  159  A    between atoms: _370  and  _371
REMARK  160  A    between atoms: _370  and  _373
REMARK  161  A    between atoms: _373  and  _374
REMARK  162  A    between atoms: _384  and  _386
REMARK  163  A    between atoms: _386  and  _387
REMARK  164  A    between atoms: _389  and  _391
REMARK  165  A    between atoms: _391  and  _392
REMARK  166  A    between atoms: _391  and  _394
REMARK  167  A    between atoms: _394  and  _395
REMARK  168  A    between atoms: _395  and  _396
REMARK  169  A    between atoms: _401  and  _403
REMARK  170  A    between atoms: _403  and  _404
REMARK  171  A    between atoms: _406  and  _408
REMARK  172  A    between atoms: _408  and  _409
REMARK  173  A    between atoms: _408  and  _411
REMARK  174  A    between atoms: _411  and  _412
REMARK  175  A    between atoms: _413  and  _415
REMARK  176  A    between atoms: _415  and  _416
REMARK  177  A    between atoms: _419  and  _421
REMARK  178  A    between atoms: _421  and  _422
REMARK  179  A    between atoms: _421  and  _424
REMARK  180  A    between atoms: _424  and  _425
REMARK  181  A    between atoms: _428  and  _430
REMARK  182  A    between atoms: _430  and  _431
REMARK  183  A    between atoms: _430  and  _433
REMARK  184  A    between atoms: _433  and  _434
REMARK  185  A    between atoms: _439  and  _441
REMARK  186  A    between atoms: _441  and  _442
REMARK  187  A    between atoms: _441  and  _444
REMARK  188  A    between atoms: _444  and  _445
REMARK  189  A    between atoms: _451  and  _453
REMARK  190  A    between atoms: _453  and  _454
REMARK  191  A    between atoms: _456  and  _458
REMARK  192  A    between atoms: _458  and  _459
REMARK  193  A    between atoms: _458  and  _461
REMARK  194  A    between atoms: _464  and  _466
REMARK  195  A    between atoms: _466  and  _467
REMARK  196  A    between atoms: _466  and  _469
REMARK  197  A    between atoms: _469  and  _470
REMARK  198  A    between atoms: _475  and  _476
REMARK  199  A    between atoms: _478  and  _480
REMARK  200  A    between atoms: _480  and  _481
REMARK  201  A    between atoms: _480  and  _483
REMARK  202  A    between atoms: _483  and  _484
REMARK                            x       y       z     vdW  Elec       q    Type
REMARK                         _______ _______ _______ _____ _____    ______ ____
ROOT
ATOM      1  N   PRO A   1      -2.725  33.052  30.726  0.00  0.00    -0.212 NA
ATOM      2  CD  PRO A   1      -1.558  33.878  30.375  0.00  0.00    +0.089 C 
ATOM      3  CG  PRO A   1      -1.473  33.714  28.887  0.00  0.00    +0.021 C 
ATOM      4  CB  PRO A   1      -1.972  32.330  28.614  0.00  0.00    +0.027 C 
ATOM      5  CA  PRO A   1      -3.055  32.092  29.669  0.00  0.00    +0.137 C 
ENDROOT
BRANCH   5   6
ATOM      6  C   PRO A   1      -3.017  30.669  30.210  0.00  0.00    +0.224 C 
ATOM      7  O   PRO A   1      -2.185  30.343  31.056  0.00  0.00    -0.287 OA
ENDBRANCH   5   6
TORSDOF 1
REMARK  Name = ../refined-set-2016/4ish/4ish_pocket.pdb
REMARK  202 active torsions:
REMARK  status: ('A' for Active; 'I' for Inactive)
REMARK    1  A    between atoms: _1  and  _5
REMARK    2  A    between atoms: _5  and  _6
REMARK    3  A    between atoms: _5  and  _8
REMARK    4  A    between atoms: _8  and  _9
REMARK    5  A    between atoms: _12  and  _14
REMARK    6  A    between atoms: _14  and  _15
REMARK    7  A    between atoms: _14  and  _17
REMARK    8  A    between atoms: _20  and  _22
REMARK    9  A    between atoms: _22  and  _23
REMARK   10  A    between atoms: _22  and  _25
REMARK   11  A    between atoms: _25  and  _26
REMARK   12  A    between atoms: _26  and  _27
REMARK   13  A    between atoms: _32  and  _34
REMARK   14  A    between atoms: _34  and  _35
REMARK   15  A    between atoms: _34  and  _37
REMARK   16  A    between atoms: _37  and  _38
REMARK   17  A    between atoms: _41  and  _43
REMARK   18  A    between atoms: _43  and  _44
REMARK   19  A    between atoms: _43  and  _46
REMARK   20  A    between atoms: _46  and  _47
REMARK   21  A    between atoms: _47  and  _77
REMARK   22  A    between atoms: _48  and  _50
REMARK   23  A    between atoms: _50  and  _51
REMARK   24  A    between atoms: _54  and  _56
REMARK   25  A    between atoms: _56  and  _57
REMARK   26  A    between atoms: _60  and  _62
REMARK   27  A    between atoms: _62  and  _63
REMARK   28  A    between atoms: _62  and  _65
REMARK   29  A    between atoms: _65  and  _66
REMARK   30  A    between atoms: _71  and  _73
REMARK   31  A    between atoms: _73  and  _74
REMARK   32  A    between atoms: _73  and  _76
REMARK   33  A    between atoms: _76  and  _77
REMARK   34  A    between atoms: _78  and  _80
REMARK   35  A    between atoms: _80  and  _81
REMARK   36  A    between atoms: _80  and  _83
REMARK   37  A    between atoms: _83  and  _84
REMARK   38  A    between atoms: _90  and  _92
REMARK   39  A    between atoms: _92  and  _93
REMARK   40  A    between atoms: _92  and  _95
REMARK   41  A    between atoms: _95  and  _96
REMARK   42  A    between atoms: _99  and  _101
REMARK   43  A    between atoms: _101  and  _102
REMARK   44  A    between atoms: _101  and  _104
REMARK   45  A    between atoms: _104  and  _105
REMARK   46  A    between atoms: _105  and  _106
REMARK   47  A    between atoms: _106  and  _107
REMARK   48  A    between atoms: _107  and  _108
REMARK   49  A    between atoms: _112  and  _114
REMARK   50  A    between atoms: _114  and  _115
REMARK   51  A    between atoms: _114  and  _117
REMARK   52  A    between atoms: _117  and  _118
REMARK   53  A    between atoms: _123  and  _124
REMARK   54  A    between atoms: _126  and  _128
REMARK   55  A    between atoms: _128  and  _129
REMARK   56  A    between atoms: _128  and  _131
REMARK   57  A    between atoms: _135  and  _136
REMARK   58  A    between atoms: _141  and  _143
REMARK   59  A    between atoms: _143  and  _144
REMARK   60  A    between atoms: _146  and  _148
REMARK   61  A    between atoms: _148  and  _149
REMARK   62  A    between atoms: _148  and  _151
REMARK   63  A    between atoms: _151  and  _152
REMARK   64  A    between atoms: _155  and  _157
REMARK   65  A    between atoms: _157  and  _158
REMARK   66  A    between atoms: _157  and  _160
REMARK   67  A    between atoms: _160  and  _161
REMARK   68  A    between atoms: _164  and  _166
REMARK   69  A    between atoms: _166  and  _167
REMARK   70  A    between atoms: _166  and  _169
REMARK   71  A    between atoms: _169  and  _170
REMARK   72  A    between atoms: _175  and  _177
REMARK   73  A    between atoms: _177  and  _178
REMARK   74  A    between atoms: _177  and  _180
REMARK   75  A    between atoms: _180  and  _181
REMARK   76  A    between atoms: _184  and  _186
REMARK   77  A    between atoms: _186  and  _187
REMARK   78  A    between atoms: _186  and  _189
REMARK   79  A    between atoms: _192  and  _194
REMARK   80  A    between atoms: _194  and  _195
REMARK   81  A    between atoms: _194  and  _197
REMARK   82  A    between atoms: _197  and  _198
REMARK   83  A    between atoms: _198  and  _199
REMARK   84  A    between atoms: _204  and  _206
REMARK   85  A    between atoms: _206  and  _207
REMARK   86  A    between atoms: _206  and  _209
REMARK   87  A    between atoms: _209  and  _210
REMARK   88  A    between atoms: _213  and  _215
REMARK   89  A    between atoms: _215  and  _216
REMARK   90  A    between atoms: _215  and  _218
REMARK   91  A    between atoms: _218  and  _219
REMARK   92  A    between atoms: _219  and  _220
REMARK   93  A    between atoms: _220  and  _221
REMARK   94  A    between atoms: _230  and  _232
REMARK   95  A    between atoms: _232  and  _233
REMARK   96  A    between atoms: _232  and  _235
REMARK   97  A    between atoms: _235  and  _236
REMARK   98  A    between atoms: _240  and  _241
REMARK   99  A    between atoms: _246  and  _248
REMARK  100  A    between atoms: _248  and  _249
REMARK  101  A    between atoms: _248  and  _251
REMARK  102  A    between atoms: _251  and  _252
REMARK  103  A    between atoms: _252  and  _253
REMARK  104  A    between atoms: _255  and  _257
REMARK  105  A    between atoms: _257  and  _258
REMARK  106  A    between atoms: _261  and  _263
REMARK  107  A    between atoms: _263  and  _264
REMARK  108  A    between atoms: _263  and  _266
REMARK  109  A    between atoms: _266  and  _267
REMARK  110  A    between atoms: _267  and  _268
REMARK  111  A    between atoms: _268  and  _269
REMARK  112  A    between atoms: _269  and  _270
REMARK  113  A    between atoms: _274  and  _276
REMARK  114  A    between atoms: _276  and  _277
REMARK  115  A    between atoms: _276  and  _279
REMARK  116  A    between atoms: _279  and  _280
REMARK  117  A    between atoms: _283  and  _285
REMARK  118  A    between atoms: _285  and  _286
REMARK  119  A    between atoms: _285  and  _288
REMARK  120  A    between atoms: _288  and  _289
REMARK  121  A    between atoms: _291  and  _293
REMARK  122  A    between atoms: _293  and  _294
REMARK  123  A    between atoms: _293  and  _296
REMARK  124  A    between atoms: _296  and  _297
REMARK  125  A    between atoms: _297  and  _412
REMARK  126  A    between atoms: _298  and  _300
REMARK  127  A    between atoms: _300  and  _301
REMARK  128  A    between atoms: _300  and  _303
REMARK  129  A    between atoms: _303  and  _304
REMARK  130  A    between atoms: _304  and  _305
REMARK  131  A    between atoms: _305  and  _306
REMARK  132  A    between atoms: _306  and  _307
REMARK  133  A    between atoms: _311  and  _313
REMARK  134  A    between atoms: _313  and  _314
REMARK  135  A    between atoms: _316  and  _318
REMARK  136  A    between atoms: _318  and  _319
REMARK  137  A    between atoms: _318  and  _321
REMARK  138  A    between atoms: _321  and  _322
REMARK  139  A    between atoms: _325  and  _327
REMARK  140  A    between atoms: _327  and  _328
REMARK  141  A    between atoms: _327  and  _330
REMARK  142  A    between atoms: _330  and  _331
REMARK  143  A    between atoms: _333  and  _335
REMARK  144  A    between atoms: _335  and  _336
REMARK  145  A    between atoms: _338  and  _340
REMARK  146  A    between atoms: _340  and  _341
REMARK  147  A    between atoms: _343  and  _345
REMARK  148  A    between atoms: _345  and  _346
REMARK  149  A    between atoms: _345  and  _348
REMARK  150  A    between atoms: _348  and  _349
REMARK  151  A    between atoms: _352  and  _354
REMARK  152  A    between atoms: _354  and  _355
REMARK  153  A    between atoms: _354  and  _357
REMARK  154  A    between atoms: _360  and  _362
REMARK  155  A    between atoms: _362  and  _363
REMARK  156  A    between atoms: _362  and  _365
REMARK  157  A    between atoms: _365  and  _366
REMARK  158  A    between atoms: _368  and  _370
REMARK  159  A    between atoms: _370  and  _371
REMARK  160  A    between atoms: _370  and  _373
REMARK  161  A    between atoms: _373  and  _374
REMARK  162  A    between atoms: _384  and  _386
REMARK  163  A    between atoms: _386  and  _387
REMARK  164  A    between atoms: _389  and  _391
REMARK  165  A    between atoms: _391  and  _392
REMARK  166  A    between atoms: _391  and  _394
REMARK  167  A    between atoms: _394  and  _395
REMARK  168  A    between atoms: _395  and  _396
REMARK  169  A    between atoms: _401  and  _403
REMARK  170  A    between atoms: _403  and  _404
REMARK  171  A    between atoms: _406  and  _408
REMARK  172  A    between atoms: _408  and  _409
REMARK  173  A    between atoms: _408  and  _411
REMARK  174  A    between atoms: _411  and  _412
REMARK  175  A    between atoms: _413  and  _415
REMARK  176  A    between atoms: _415  and  _416
REMARK  177  A    between atoms: _419  and  _421
REMARK  178  A    between atoms: _421  and  _422
REMARK  179  A    between atoms: _421  and  _424
REMARK  180  A    between atoms: _424  and  _425
REMARK  181  A    between atoms: _428  and  _430
REMARK  182  A    between atoms: _430  and  _431
REMARK  183  A    between atoms: _430  and  _433
REMARK  184  A    between atoms: _433  and  _434
REMARK  185  A    between atoms: _439  and  _441
REMARK  186  A    between atoms: _441  and  _442
REMARK  187  A    between atoms: _441  and  _444
REMARK  188  A    between atoms: _444  and  _445
REMARK  189  A    between atoms: _451  and  _453
REMARK  190  A    between atoms: _453  and  _454
REMARK  191  A    between atoms: _456  and  _458
REMARK  192  A    between atoms: _458  and  _459
REMARK  193  A    between atoms: _458  and  _461
REMARK  194  A    between atoms: _464  and  _466
REMARK  195  A    between atoms: _466  and  _467
REMARK  196  A    between atoms: _466  and  _469
REMARK  197  A    between atoms: _469  and  _470
REMARK  198  A    between atoms: _475  and  _476
REMARK  199  A    between atoms: _478  and  _480
REMARK  200  A    between atoms: _480  and  _481
REMARK  201  A    between atoms: _480  and  _483
REMARK  202  A    between atoms: _483  and  _484
REMARK                            x       y       z     vdW  Elec       q    Type
REMARK                         _______ _______ _______ _____ _____    ______ ____
ROOT
ATOM      1  CA  MET A   1       3.052  23.754  25.687  0.00  0.00    +0.134 C 
ENDROOT
BRANCH   1   2
ATOM      2  N   MET A   1       2.049  23.049  24.897  0.00  0.00    -0.239 NA
ATOM      3  H   MET A   1       1.360  22.452  25.397  0.00  0.00    +0.142 HD
ENDBRANCH   1   2
BRANCH   1   4
ATOM      4  C   MET A   1       3.603  22.825  26.764  0.00  0.00    +0.224 C 
ATOM      5  O   MET A   1       3.012  21.787  27.060  0.00  0.00    -0.287 OA
ENDBRANCH   1   4
BRANCH   1   6
ATOM      6  CB  MET A   1       2.428  24.965  26.384  0.00  0.00    +0.037 C 
BRANCH   6   7
ATOM      7  CG  MET A   1       1.667  25.904  25.481  0.00  0.00    +0.059 C 
BRANCH   7   8
ATOM      8  SD  MET A   1       0.704  27.072  26.463  0.00  0.00    -0.139 S 
ATOM      9  CE  MET A   1      -0.212  27.904  25.181  0.00  0.00    +0.069 C 
ENDBRANCH   7   8
ENDBRANCH   6   7
ENDBRANCH   1   6
TORSDOF 5
REMARK  Name = ../refined-set-2016/4ish/4ish_pocket.pdb
REMARK  202 active torsions:
REMARK  status: ('A' for Active; 'I' for Inactive)
REMARK    1  A    between atoms: _1  and  _5
REMARK    2  A    between atoms: _5  and  _6
REMARK    3  A    between atoms: _5  and  _8
REMARK    4  A    between atoms: _8  and  _9
REMARK    5  A    between atoms: _12  and  _14
REMARK    6  A    between atoms: _14  and  _15
REMARK    7  A    between atoms: _14  and  _17
REMARK    8  A    between atoms: _20  and  _22
REMARK    9  A    between atoms: _22  and  _23
REMARK   10  A    between atoms: _22  and  _25
REMARK   11  A    between atoms: _25  and  _26
REMARK   12  A    between atoms: _26  and  _27
REMARK   13  A    between atoms: _32  and  _34
REMARK   14  A    between atoms: _34  and  _35
REMARK   15  A    between atoms: _34  and  _37
REMARK   16  A    between atoms: _37  and  _38
REMARK   17  A    between atoms: _41  and  _43
REMARK   18  A    between atoms: _43  and  _44
REMARK   19  A    between atoms: _43  and  _46
REMARK   20  A    between atoms: _46  and  _47
REMARK   21  A    between atoms: _47  and  _77
REMARK   22  A    between atoms: _48  and  _50
REMARK   23  A    between atoms: _50  and  _51
REMARK   24  A    between atoms: _54  and  _56
REMARK   25  A    between atoms: _56  and  _57
REMARK   26  A    between atoms: _60  and  _62
REMARK   27  A    between atoms: _62  and  _63
REMARK   28  A    between atoms: _62  and  _65
REMARK   29  A    between atoms: _65  and  _66
REMARK   30  A    between atoms: _71  and  _73
REMARK   31  A    between atoms: _73  and  _74
REMARK   32  A    between atoms: _73  and  _76
REMARK   33  A    between atoms: _76  and  _77
REMARK   34  A    between atoms: _78  and  _80
REMARK   35  A    between atoms: _80  and  _81
REMARK   36  A    between atoms: _80  and  _83
REMARK   37  A    between atoms: _83  and  _84
REMARK   38  A    between atoms: _90  and  _92
REMARK   39  A    between atoms: _92  and  _93
REMARK   40  A    between atoms: _92  and  _95
REMARK   41  A    between atoms: _95  and  _96
REMARK   42  A    between atoms: _99  and  _101
REMARK   43  A    between atoms: _101  and  _102
REMARK   44  A    between atoms: _101  and  _104
REMARK   45  A    between atoms: _104  and  _105
REMARK   46  A    between atoms: _105  and  _106
REMARK   47  A    between atoms: _106  and  _107
REMARK   48  A    between atoms: _107  and  _108
REMARK   49  A    between atoms: _112  and  _114
REMARK   50  A    between atoms: _114  and  _115
REMARK   51  A    between atoms: _114  and  _117
REMARK   52  A    between atoms: _117  and  _118
REMARK   53  A    between atoms: _123  and  _124
REMARK   54  A    between atoms: _126  and  _128
REMARK   55  A    between atoms: _128  and  _129
REMARK   56  A    between atoms: _128  and  _131
REMARK   57  A    between atoms: _135  and  _136
REMARK   58  A    between atoms: _141  and  _143
REMARK   59  A    between atoms: _143  and  _144
REMARK   60  A    between atoms: _146  and  _148
REMARK   61  A    between atoms: _148  and  _149
REMARK   62  A    between atoms: _148  and  _151
REMARK   63  A    between atoms: _151  and  _152
REMARK   64  A    between atoms: _155  and  _157
REMARK   65  A    between atoms: _157  and  _158
REMARK   66  A    between atoms: _157  and  _160
REMARK   67  A    between atoms: _160  and  _161
REMARK   68  A    between atoms: _164  and  _166
REMARK   69  A    between atoms: _166  and  _167
REMARK   70  A    between atoms: _166  and  _169
REMARK   71  A    between atoms: _169  and  _170
REMARK   72  A    between atoms: _175  and  _177
REMARK   73  A    between atoms: _177  and  _178
REMARK   74  A    between atoms: _177  and  _180
REMARK   75  A    between atoms: _180  and  _181
REMARK   76  A    between atoms: _184  and  _186
REMARK   77  A    between atoms: _186  and  _187
REMARK   78  A    between atoms: _186  and  _189
REMARK   79  A    between atoms: _192  and  _194
REMARK   80  A    between atoms: _194  and  _195
REMARK   81  A    between atoms: _194  and  _197
REMARK   82  A    between atoms: _197  and  _198
REMARK   83  A    between atoms: _198  and  _199
REMARK   84  A    between atoms: _204  and  _206
REMARK   85  A    between atoms: _206  and  _207
REMARK   86  A    between atoms: _206  and  _209
REMARK   87  A    between atoms: _209  and  _210
REMARK   88  A    between atoms: _213  and  _215
REMARK   89  A    between atoms: _215  and  _216
REMARK   90  A    between atoms: _215  and  _218
REMARK   91  A    between atoms: _218  and  _219
REMARK   92  A    between atoms: _219  and  _220
REMARK   93  A    between atoms: _220  and  _221
REMARK   94  A    between atoms: _230  and  _232
REMARK   95  A    between atoms: _232  and  _233
REMARK   96  A    between atoms: _232  and  _235
REMARK   97  A    between atoms: _235  and  _236
REMARK   98  A    between atoms: _240  and  _241
REMARK   99  A    between atoms: _246  and  _248
REMARK  100  A    between atoms: _248  and  _249
REMARK  101  A    between atoms: _248  and  _251
REMARK  102  A    between atoms: _251  and  _252
REMARK  103  A    between atoms: _252  and  _253
REMARK  104  A    between atoms: _255  and  _257
REMARK  105  A    between atoms: _257  and  _258
REMARK  106  A    between atoms: _261  and  _263
REMARK  107  A    between atoms: _263  and  _264
REMARK  108  A    between atoms: _263  and  _266
REMARK  109  A    between atoms: _266  and  _267
REMARK  110  A    between atoms: _267  and  _268
REMARK  111  A    between atoms: _268  and  _269
REMARK  112  A    between atoms: _269  and  _270
REMARK  113  A    between atoms: _274  and  _276
REMARK  114  A    between atoms: _276  and  _277
REMARK  115  A    between atoms: _276  and  _279
REMARK  116  A    between atoms: _279  and  _280
REMARK  117  A    between atoms: _283  and  _285
REMARK  118  A    between atoms: _285  and  _286
REMARK  119  A    between atoms: _285  and  _288
REMARK  120  A    between atoms: _288  and  _289
REMARK  121  A    between atoms: _291  and  _293
REMARK  122  A    between atoms: _293  and  _294
REMARK  123  A    between atoms: _293  and  _296
REMARK  124  A    between atoms: _296  and  _297
REMARK  125  A    between atoms: _297  and  _412
REMARK  126  A    between atoms: _298  and  _300
REMARK  127  A    between atoms: _300  and  _301
REMARK  128  A    between atoms: _300  and  _303
REMARK  129  A    between atoms: _303  and  _304
REMARK  130  A    between atoms: _304  and  _305
REMARK  131  A    between atoms: _305  and  _306
REMARK  132  A    between atoms: _306  and  _307
REMARK  133  A    between atoms: _311  and  _313
REMARK  134  A    between atoms: _313  and  _314
REMARK  135  A    between atoms: _316  and  _318
REMARK  136  A    between atoms: _318  and  _319
REMARK  137  A    between atoms: _318  and  _321
REMARK  138  A    between atoms: _321  and  _322
REMARK  139  A    between atoms: _325  and  _327
REMARK  140  A    between atoms: _327  and  _328
REMARK  141  A    between atoms: _327  and  _330
REMARK  142  A    between atoms: _330  and  _331
REMARK  143  A    between atoms: _333  and  _335
REMARK  144  A    between atoms: _335  and  _336
REMARK  145  A    between atoms: _338  and  _340
REMARK  146  A    between atoms: _340  and  _341
REMARK  147  A    between atoms: _343  and  _345
REMARK  148  A    between atoms: _345  and  _346
REMARK  149  A    between atoms: _345  and  _348
REMARK  150  A    between atoms: _348  and  _349
REMARK  151  A    between atoms: _352  and  _354
REMARK  152  A    between atoms: _354  and  _355
REMARK  153  A    between atoms: _354  and  _357
REMARK  154  A    between atoms: _360  and  _362
REMARK  155  A    between atoms: _362  and  _363
REMARK  156  A    between atoms: _362  and  _365
REMARK  157  A    between atoms: _365  and  _366
REMARK  158  A    between atoms: _368  and  _370
REMARK  159  A    between atoms: _370  and  _371
REMARK  160  A    between atoms: _370  and  _373
REMARK  161  A    between atoms: _373  and  _374
REMARK  162  A    between atoms: _384  and  _386
REMARK  163  A    between atoms: _386  and  _387
REMARK  164  A    between atoms: _389  and  _391
REMARK  165  A    between atoms: _391  and  _392
REMARK  166  A    between atoms: _391  and  _394
REMARK  167  A    between atoms: _394  and  _395
REMARK  168  A    between atoms: _395  and  _396
REMARK  169  A    between atoms: _401  and  _403
REMARK  170  A    between atoms: _403  and  _404
REMARK  171  A    between atoms: _406  and  _408
REMARK  172  A    between atoms: _408  and  _409
REMARK  173  A    between atoms: _408  and  _411
REMARK  174  A    between atoms: _411  and  _412
REMARK  175  A    between atoms: _413  and  _415
REMARK  176  A    between atoms: _415  and  _416
REMARK  177  A    between atoms: _419  and  _421
REMARK  178  A    between atoms: _421  and  _422
REMARK  179  A    between atoms: _421  and  _424
REMARK  180  A    between atoms: _424  and  _425
REMARK  181  A    between atoms: _428  and  _430
REMARK  182  A    between atoms: _430  and  _431
REMARK  183  A    between atoms: _430  and  _433
REMARK  184  A    between atoms: _433  and  _434
REMARK  185  A    between atoms: _439  and  _441
REMARK  186  A    between atoms: _441  and  _442
REMARK  187  A    between atoms: _441  and  _444
REMARK  188  A    between atoms: _444  and  _445
REMARK  189  A    between atoms: _451  and  _453
REMARK  190  A    between atoms: _453  and  _454
REMARK  191  A    between atoms: _456  and  _458
REMARK  192  A    between atoms: _458  and  _459
REMARK  193  A    between atoms: _458  and  _461
REMARK  194  A    between atoms: _464  and  _466
REMARK  195  A    between atoms: _466  and  _467
REMARK  196  A    between atoms: _466  and  _469
REMARK  197  A    between atoms: _469  and  _470
REMARK  198  A    between atoms: _475  and  _476
REMARK  199  A    between atoms: _478  and  _480
REMARK  200  A    between atoms: _480  and  _481
REMARK  201  A    between atoms: _480  and  _483
REMARK  202  A    between atoms: _483  and  _484
REMARK                            x       y       z     vdW  Elec       q    Type
REMARK                         _______ _______ _______ _____ _____    ______ ____
ROOT
ATOM      1  CA  ALA A   1      10.542  24.273  32.317  0.00  0.00    +0.133 C 
ATOM      2  CB  ALA A   1      11.365  23.835  31.109  0.00  0.00    +0.027 C 
ENDROOT
BRANCH   1   3
ATOM      3  N   ALA A   1       9.207  24.656  31.900  0.00  0.00    -0.239 NA
ATOM      4  H   ALA A   1       9.011  25.654  31.685  0.00  0.00    +0.142 HD
ENDBRANCH   1   3
BRANCH   1   5
ATOM      5  C   ALA A   1      11.198  25.462  33.006  0.00  0.00    +0.224 C 
ATOM      6  O   ALA A   1      10.891  26.616  32.698  0.00  0.00    -0.287 OA
ENDBRANCH   1   5
TORSDOF 2
REMARK  Name = ../refined-set-2016/4ish/4ish_pocket.pdb
REMARK  202 active torsions:
REMARK  status: ('A' for Active; 'I' for Inactive)
REMARK    1  A    between atoms: _1  and  _5
REMARK    2  A    between atoms: _5  and  _6
REMARK    3  A    between atoms: _5  and  _8
REMARK    4  A    between atoms: _8  and  _9
REMARK    5  A    between atoms: _12  and  _14
REMARK    6  A    between atoms: _14  and  _15
REMARK    7  A    between atoms: _14  and  _17
REMARK    8  A    between atoms: _20  and  _22
REMARK    9  A    between atoms: _22  and  _23
REMARK   10  A    between atoms: _22  and  _25
REMARK   11  A    between atoms: _25  and  _26
REMARK   12  A    between atoms: _26  and  _27
REMARK   13  A    between atoms: _32  and  _34
REMARK   14  A    between atoms: _34  and  _35
REMARK   15  A    between atoms: _34  and  _37
REMARK   16  A    between atoms: _37  and  _38
REMARK   17  A    between atoms: _41  and  _43
REMARK   18  A    between atoms: _43  and  _44
REMARK   19  A    between atoms: _43  and  _46
REMARK   20  A    between atoms: _46  and  _47
REMARK   21  A    between atoms: _47  and  _77
REMARK   22  A    between atoms: _48  and  _50
REMARK   23  A    between atoms: _50  and  _51
REMARK   24  A    between atoms: _54  and  _56
REMARK   25  A    between atoms: _56  and  _57
REMARK   26  A    between atoms: _60  and  _62
REMARK   27  A    between atoms: _62  and  _63
REMARK   28  A    between atoms: _62  and  _65
REMARK   29  A    between atoms: _65  and  _66
REMARK   30  A    between atoms: _71  and  _73
REMARK   31  A    between atoms: _73  and  _74
REMARK   32  A    between atoms: _73  and  _76
REMARK   33  A    between atoms: _76  and  _77
REMARK   34  A    between atoms: _78  and  _80
REMARK   35  A    between atoms: _80  and  _81
REMARK   36  A    between atoms: _80  and  _83
REMARK   37  A    between atoms: _83  and  _84
REMARK   38  A    between atoms: _90  and  _92
REMARK   39  A    between atoms: _92  and  _93
REMARK   40  A    between atoms: _92  and  _95
REMARK   41  A    between atoms: _95  and  _96
REMARK   42  A    between atoms: _99  and  _101
REMARK   43  A    between atoms: _101  and  _102
REMARK   44  A    between atoms: _101  and  _104
REMARK   45  A    between atoms: _104  and  _105
REMARK   46  A    between atoms: _105  and  _106
REMARK   47  A    between atoms: _106  and  _107
REMARK   48  A    between atoms: _107  and  _108
REMARK   49  A    between atoms: _112  and  _114
REMARK   50  A    between atoms: _114  and  _115
REMARK   51  A    between atoms: _114  and  _117
REMARK   52  A    between atoms: _117  and  _118
REMARK   53  A    between atoms: _123  and  _124
REMARK   54  A    between atoms: _126  and  _128
REMARK   55  A    between atoms: _128  and  _129
REMARK   56  A    between atoms: _128  and  _131
REMARK   57  A    between atoms: _135  and  _136
REMARK   58  A    between atoms: _141  and  _143
REMARK   59  A    between atoms: _143  and  _144
REMARK   60  A    between atoms: _146  and  _148
REMARK   61  A    between atoms: _148  and  _149
REMARK   62  A    between atoms: _148  and  _151
REMARK   63  A    between atoms: _151  and  _152
REMARK   64  A    between atoms: _155  and  _157
REMARK   65  A    between atoms: _157  and  _158
REMARK   66  A    between atoms: _157  and  _160
REMARK   67  A    between atoms: _160  and  _161
REMARK   68  A    between atoms: _164  and  _166
REMARK   69  A    between atoms: _166  and  _167
REMARK   70  A    between atoms: _166  and  _169
REMARK   71  A    between atoms: _169  and  _170
REMARK   72  A    between atoms: _175  and  _177
REMARK   73  A    between atoms: _177  and  _178
REMARK   74  A    between atoms: _177  and  _180
REMARK   75  A    between atoms: _180  and  _181
REMARK   76  A    between atoms: _184  and  _186
REMARK   77  A    between atoms: _186  and  _187
REMARK   78  A    between atoms: _186  and  _189
REMARK   79  A    between atoms: _192  and  _194
REMARK   80  A    between atoms: _194  and  _195
REMARK   81  A    between atoms: _194  and  _197
REMARK   82  A    between atoms: _197  and  _198
REMARK   83  A    between atoms: _198  and  _199
REMARK   84  A    between atoms: _204  and  _206
REMARK   85  A    between atoms: _206  and  _207
REMARK   86  A    between atoms: _206  and  _209
REMARK   87  A    between atoms: _209  and  _210
REMARK   88  A    between atoms: _213  and  _215
REMARK   89  A    between atoms: _215  and  _216
REMARK   90  A    between atoms: _215  and  _218
REMARK   91  A    between atoms: _218  and  _219
REMARK   92  A    between atoms: _219  and  _220
REMARK   93  A    between atoms: _220  and  _221
REMARK   94  A    between atoms: _230  and  _232
REMARK   95  A    between atoms: _232  and  _233
REMARK   96  A    between atoms: _232  and  _235
REMARK   97  A    between atoms: _235  and  _236
REMARK   98  A    between atoms: _240  and  _241
REMARK   99  A    between atoms: _246  and  _248
REMARK  100  A    between atoms: _248  and  _249
REMARK  101  A    between atoms: _248  and  _251
REMARK  102  A    between atoms: _251  and  _252
REMARK  103  A    between atoms: _252  and  _253
REMARK  104  A    between atoms: _255  and  _257
REMARK  105  A    between atoms: _257  and  _258
REMARK  106  A    between atoms: _261  and  _263
REMARK  107  A    between atoms: _263  and  _264
REMARK  108  A    between atoms: _263  and  _266
REMARK  109  A    between atoms: _266  and  _267
REMARK  110  A    between atoms: _267  and  _268
REMARK  111  A    between atoms: _268  and  _269
REMARK  112  A    between atoms: _269  and  _270
REMARK  113  A    between atoms: _274  and  _276
REMARK  114  A    between atoms: _276  and  _277
REMARK  115  A    between atoms: _276  and  _279
REMARK  116  A    between atoms: _279  and  _280
REMARK  117  A    between atoms: _283  and  _285
REMARK  118  A    between atoms: _285  and  _286
REMARK  119  A    between atoms: _285  and  _288
REMARK  120  A    between atoms: _288  and  _289
REMARK  121  A    between atoms: _291  and  _293
REMARK  122  A    between atoms: _293  and  _294
REMARK  123  A    between atoms: _293  and  _296
REMARK  124  A    between atoms: _296  and  _297
REMARK  125  A    between atoms: _297  and  _412
REMARK  126  A    between atoms: _298  and  _300
REMARK  127  A    between atoms: _300  and  _301
REMARK  128  A    between atoms: _300  and  _303
REMARK  129  A    between atoms: _303  and  _304
REMARK  130  A    between atoms: _304  and  _305
REMARK  131  A    between atoms: _305  and  _306
REMARK  132  A    between atoms: _306  and  _307
REMARK  133  A    between atoms: _311  and  _313
REMARK  134  A    between atoms: _313  and  _314
REMARK  135  A    between atoms: _316  and  _318
REMARK  136  A    between atoms: _318  and  _319
REMARK  137  A    between atoms: _318  and  _321
REMARK  138  A    between atoms: _321  and  _322
REMARK  139  A    between atoms: _325  and  _327
REMARK  140  A    between atoms: _327  and  _328
REMARK  141  A    between atoms: _327  and  _330
REMARK  142  A    between atoms: _330  and  _331
REMARK  143  A    between atoms: _333  and  _335
REMARK  144  A    between atoms: _335  and  _336
REMARK  145  A    between atoms: _338  and  _340
REMARK  146  A    between atoms: _340  and  _341
REMARK  147  A    between atoms: _343  and  _345
REMARK  148  A    between atoms: _345  and  _346
REMARK  149  A    between atoms: _345  and  _348
REMARK  150  A    between atoms: _348  and  _349
REMARK  151  A    between atoms: _352  and  _354
REMARK  152  A    between atoms: _354  and  _355
REMARK  153  A    between atoms: _354  and  _357
REMARK  154  A    between atoms: _360  and  _362
REMARK  155  A    between atoms: _362  and  _363
REMARK  156  A    between atoms: _362  and  _365
REMARK  157  A    between atoms: _365  and  _366
REMARK  158  A    between atoms: _368  and  _370
REMARK  159  A    between atoms: _370  and  _371
REMARK  160  A    between atoms: _370  and  _373
REMARK  161  A    between atoms: _373  and  _374
REMARK  162  A    between atoms: _384  and  _386
REMARK  163  A    between atoms: _386  and  _387
REMARK  164  A    between atoms: _389  and  _391
REMARK  165  A    between atoms: _391  and  _392
REMARK  166  A    between atoms: _391  and  _394
REMARK  167  A    between atoms: _394  and  _395
REMARK  168  A    between atoms: _395  and  _396
REMARK  169  A    between atoms: _401  and  _403
REMARK  170  A    between atoms: _403  and  _404
REMARK  171  A    between atoms: _406  and  _408
REMARK  172  A    between atoms: _408  and  _409
REMARK  173  A    between atoms: _408  and  _411
REMARK  174  A    between atoms: _411  and  _412
REMARK  175  A    between atoms: _413  and  _415
REMARK  176  A    between atoms: _415  and  _416
REMARK  177  A    between atoms: _419  and  _421
REMARK  178  A    between atoms: _421  and  _422
REMARK  179  A    between atoms: _421  and  _424
REMARK  180  A    between atoms: _424  and  _425
REMARK  181  A    between atoms: _428  and  _430
REMARK  182  A    between atoms: _430  and  _431
REMARK  183  A    between atoms: _430  and  _433
REMARK  184  A    between atoms: _433  and  _434
REMARK  185  A    between atoms: _439  and  _441
REMARK  186  A    between atoms: _441  and  _442
REMARK  187  A    between atoms: _441  and  _444
REMARK  188  A    between atoms: _444  and  _445
REMARK  189  A    between atoms: _451  and  _453
REMARK  190  A    between atoms: _453  and  _454
REMARK  191  A    between atoms: _456  and  _458
REMARK  192  A    between atoms: _458  and  _459
REMARK  193  A    between atoms: _458  and  _461
REMARK  194  A    between atoms: _464  and  _466
REMARK  195  A    between atoms: _466  and  _467
REMARK  196  A    between atoms: _466  and  _469
REMARK  197  A    between atoms: _469  and  _470
REMARK  198  A    between atoms: _475  and  _476
REMARK  199  A    between atoms: _478  and  _480
REMARK  200  A    between atoms: _480  and  _481
REMARK  201  A    between atoms: _480  and  _483
REMARK  202  A    between atoms: _483  and  _484
REMARK                            x       y       z     vdW  Elec       q    Type
REMARK                         _______ _______ _______ _____ _____    ______ ____
ROOT
ATOM      1  CB  SER A   8      12.429  37.501  32.421  0.00  0.00    +0.098 C 
ENDROOT
BRANCH   1   2
ATOM      2  SG  SER A   8      11.798  37.841  30.749  0.00  0.00    -0.080 S 
BRANCH   2   3
ATOM      3  SG  TRP A   4      13.417  38.504  29.723  0.00  0.00    -0.080 S 
BRANCH   3   4
ATOM      4  CB  TRP A   4      14.221  36.988  29.079  0.00  0.00    +0.098 C 
BRANCH   4   5
ATOM      5  CA  TRP A   4      13.282  35.873  28.583  0.00  0.00    +0.160 C 
BRANCH   5   8
ATOM      6  C   SER A   3      13.874  33.712  29.517  0.00  0.00    +0.243 C 
ATOM      7  O   SER A   3      13.134  33.895  30.485  0.00  0.00    -0.273 OA
ATOM      8  N   TRP A   4      14.004  34.603  28.540  0.00  0.00    -0.296 N 
ATOM      9  H   TRP A   4      14.628  34.394  27.734  0.00  0.00    +0.150 HD
BRANCH   6  10
ATOM     10  CA  SER A   3      14.709  32.431  29.416  0.00  0.00    +0.178 C 
BRANCH  10  13
ATOM     11  C   VAL A   2      15.224  31.986  31.731  0.00  0.00    +0.241 C 
ATOM     12  O   VAL A   2      16.269  32.629  31.668  0.00  0.00    -0.273 OA
ATOM     13  N   SER A   3      14.510  31.683  30.653  0.00  0.00    -0.295 N 
ATOM     14  H   SER A   3      13.811  30.914  30.690  0.00  0.00    +0.150 HD
BRANCH  11  15
ATOM     15  CA  VAL A   2      14.702  31.493  33.077  0.00  0.00    +0.160 C 
BRANCH  15  18
ATOM     16  C   ILE A   1      15.723  31.043  35.245  0.00  0.00    +0.238 C 
ATOM     17  O   ILE A   1      14.719  30.452  35.644  0.00  0.00    -0.274 OA
ATOM     18  N   VAL A   2      15.821  31.545  34.019  0.00  0.00    -0.297 N 
ATOM     19  H   VAL A   2      16.715  31.986  33.721  0.00  0.00    +0.150 HD
BRANCH  16  20
ATOM     20  CA  ILE A   1      16.942  31.219  36.152  0.00  0.00    +0.145 C 
BRANCH  20  21
ATOM     21  N   ILE A   1      16.569  31.745  37.467  0.00  0.00    -0.238 NA
ATOM     22  H   ILE A   1      15.675  31.439  37.902  0.00  0.00    +0.142 HD
ENDBRANCH  20  21
BRANCH  20  23
ATOM     23  CB  ILE A   1      17.655  29.871  36.314  0.00  0.00    +0.026 C 
BRANCH  23  24
ATOM     24  CG  ILE A   1      19.013  29.954  37.014  0.00  0.00    -0.000 C 
BRANCH  24  25
ATOM     25  CD  ILE A   1      19.591  28.568  37.288  0.00  0.00    -0.024 C 
BRANCH  25  26
ATOM     26  CE  ILE A   1      18.915  27.899  38.479  0.00  0.00    -0.086 C 
BRANCH  26  27
ATOM     27  NZ  ILE A   1      19.329  28.512  39.775  0.00  0.00    +0.380 N 
ATOM     28  HZ1 ILE A   1      18.845  28.026  40.557  0.00  0.00    -0.089 HD
ATOM     29  HZ2 ILE A   1      20.358  28.416  39.889  0.00  0.00    -0.089 HD
ATOM     30  HZ3 ILE A   1      19.071  29.519  39.779  0.00  0.00    -0.089 HD
ENDBRANCH  26  27
ENDBRANCH  25  26
ENDBRANCH  24  25
ENDBRANCH  23  24
ENDBRANCH  20  23
ENDBRANCH  16  20
ENDBRANCH  15  18
BRANCH  15  31
ATOM     31  CB  VAL A   2      13.574  32.410  33.573  0.00  0.00    +0.143 C 
BRANCH  31  32
ATOM     32  CG  VAL A   2      12.244  32.182  32.853  0.00  0.00    +0.367 C 
ATOM     33  OD2 VAL A   2      11.282  32.925  33.153  0.00  0.00    -0.246 OA
ATOM     34  OD1 VAL A   2      12.144  31.277  31.997  0.00  0.00    -0.246 OA
ENDBRANCH  31  32
ENDBRANCH  15  31
ENDBRANCH  11  15
ENDBRANCH  10  13
BRANCH  10  35
ATOM     35  CB  SER A   3      14.288  31.589  28.200  0.00  0.00    +0.166 C 
BRANCH  35  36
ATOM     36  OG  SER A   3      12.999  31.029  28.373  0.00  0.00    -0.380 OA
ATOM     37  H   SER A   3      12.999  30.445  29.173  0.00  0.00    +0.211 HD
ENDBRANCH  35  36
ENDBRANCH  10  35
ENDBRANCH   6  10
ENDBRANCH   5   8
BRANCH   5  38
ATOM     38  C   TRP A   4      12.722  36.205  27.204  0.00  0.00    +0.242 C 
ATOM     39  N   LYS A   5      11.999  37.316  27.104  0.00  0.00    -0.297 N 
ATOM     40  H   LYS A   5      11.967  37.978  27.906  0.00  0.00    +0.150 HD
ATOM     41  O   TRP A   4      12.933  35.460  26.246  0.00  0.00    -0.273 OA
BRANCH  39  42
ATOM     42  CA  LYS A   5      11.250  37.624  25.893  0.00  0.00    +0.149 C 
BRANCH  42  43
ATOM     43  C   LYS A   5      12.134  37.711  24.649  0.00  0.00    +0.241 C 
ATOM     44  N   GLY A   6      13.348  38.232  24.807  0.00  0.00    -0.295 N 
ATOM     45  H   GLY A   6      13.649  38.561  25.746  0.00  0.00    +0.150 HD
ATOM     46  O   LYS A   5      11.723  37.298  23.565  0.00  0.00    -0.273 OA
BRANCH  44  47
ATOM     47  CA  GLY A   6      14.257  38.345  23.680  0.00  0.00    +0.176 C 
BRANCH  47  48
ATOM     48  C   GLY A   6      14.829  37.016  23.202  0.00  0.00    +0.243 C 
ATOM     49  N   ASP A   7      14.635  35.962  23.989  0.00  0.00    -0.296 N 
ATOM     50  H   ASP A   7      14.175  36.096  24.912  0.00  0.00    +0.150 HD
ATOM     51  O   GLY A   6      15.439  36.947  22.134  0.00  0.00    -0.273 OA
BRANCH  49  52
ATOM     52  CA  ASP A   7      15.052  34.620  23.589  0.00  0.00    +0.160 C 
BRANCH  52  53
ATOM     53  C   ASP A   7      13.956  33.893  22.820  0.00  0.00    +0.241 C 
ATOM     54  N   SER A   8      12.781  34.515  22.731  0.00  0.00    -0.295 N 
ATOM     55  H   SER A   8      12.674  35.447  23.179  0.00  0.00    +0.150 HD
ATOM     56  O   ASP A   7      14.177  32.789  22.326  0.00  0.00    -0.273 OA
BRANCH  54  57
ATOM     57  CA  SER A   8      11.637  33.940  22.029  0.00  0.00    +0.178 C 
BRANCH  57  58
ATOM     58  C   SER A   8      12.050  33.317  20.705  0.00  0.00    +0.243 C 
ATOM     59  N   GLY A   9      11.529  32.125  20.432  0.00  0.00    -0.295 N 
ATOM     60  H   GLY A   9      10.898  31.670  21.122  0.00  0.00    +0.150 HD
ATOM     61  O   SER A   8      12.815  33.911  19.943  0.00  0.00    -0.273 OA
BRANCH  59  62
ATOM     62  CA  GLY A   9      11.830  31.449  19.182  0.00  0.00    +0.176 C 
BRANCH  62  63
ATOM     63  C   GLY A   9      13.035  30.522  19.238  0.00  0.00    +0.243 C 
ATOM     64  N   GLY A  10      13.896  30.720  20.234  0.00  0.00    -0.296 N 
ATOM     65  H   GLY A  10      13.692  31.446  20.950  0.00  0.00    +0.150 HD
ATOM     66  O   GLY A   9      13.183  29.637  18.390  0.00  0.00    -0.273 OA
BRANCH  64  67
ATOM     67  CA  GLY A  10      15.115  29.938  20.336  0.00  0.00    +0.163 C 
BRANCH  67  68
ATOM     68  C   GLY A  10      14.873  28.514  20.809  0.00  0.00    +0.229 C 
ATOM     69  O   GLY A  10      13.764  28.173  21.228  0.00  0.00    -0.286 OA
ENDBRANCH  67  68
ENDBRANCH  64  67
ENDBRANCH  62  63
ENDBRANCH  59  62
ENDBRANCH  57  58
BRANCH  57  70
ATOM     70  CB  SER A   8      10.581  35.020  21.758  0.00  0.00    +0.166 C 
BRANCH  70  71
ATOM     71  OG  SER A   8       9.931  35.428  22.952  0.00  0.00    -0.380 OA
ATOM     72  H   SER A   8      10.600  35.796  23.582  0.00  0.00    +0.211 HD
ENDBRANCH  70  71
ENDBRANCH  57  70
ENDBRANCH  54  57
ENDBRANCH  52  53
BRANCH  52  73
ATOM     73  CB  ASP A   7      15.431  33.796  24.822  0.00  0.00    +0.143 C 
BRANCH  73  74
ATOM     74  CG  ASP A   7      16.548  34.430  25.620  0.00  0.00    +0.367 C 
ATOM     75  OD2 ASP A   7      16.362  34.652  26.834  0.00  0.00    -0.246 OA
ATOM     76  OD1 ASP A   7      17.609  34.708  25.030  0.00  0.00    -0.246 OA
ENDBRANCH  73  74
ENDBRANCH  52  73
ENDBRANCH  49  52
ENDBRANCH  47  48
ENDBRANCH  44  47
ENDBRANCH  42  43
BRANCH  42  77
ATOM     77  CB  LYS A   5      10.467  38.928  26.074  0.00  0.00    +0.029 C 
BRANCH  77  78
ATOM     78  CG  LYS A   5      11.327  40.156  26.337  0.00  0.00    +0.000 C 
BRANCH  78  79
ATOM     79  CD  LYS A   5      10.461  41.339  26.748  0.00  0.00    -0.024 C 
BRANCH  79  80
ATOM     80  CE  LYS A   5      11.274  42.616  26.851  0.00  0.00    -0.086 C 
BRANCH  80  81
ATOM     81  NZ  LYS A   5      10.426  43.759  27.306  0.00  0.00    +0.380 N 
ATOM     82  HZ1 LYS A   5      10.027  43.542  28.241  0.00  0.00    -0.089 HD
ATOM     83  HZ2 LYS A   5      11.008  44.618  27.367  0.00  0.00    -0.089 HD
ATOM     84  HZ3 LYS A   5       9.655  43.909  26.625  0.00  0.00    -0.089 HD
ENDBRANCH  80  81
ENDBRANCH  79  80
ENDBRANCH  78  79
ENDBRANCH  77  78
ENDBRANCH  42  77
ENDBRANCH  39  42
ENDBRANCH   5  38
ENDBRANCH   4   5
ENDBRANCH   3   4
ENDBRANCH   2   3
ENDBRANCH   1   2
BRANCH   1  85
ATOM     85  CA  SER A   8      11.384  36.821  33.304  0.00  0.00    +0.160 C 
BRANCH  85  86
ATOM     86  N   SER A   8      10.232  37.702  33.480  0.00  0.00    -0.296 N 
ATOM     87  H   SER A   8      10.316  38.533  34.100  0.00  0.00    +0.150 HD
ATOM     88  C   ASP A   7       9.078  37.464  32.864  0.00  0.00    +0.243 C 
ATOM     89  O   ASP A   7       8.928  36.544  32.060  0.00  0.00    -0.273 OA
BRANCH  88  90
ATOM     90  CA  ASP A   7       7.919  38.387  33.193  0.00  0.00    +0.176 C 
BRANCH  90  91
ATOM     91  N   ASP A   7       6.662  37.673  33.064  0.00  0.00    -0.295 N 
ATOM     92  C   GLY A   6       6.465  36.540  33.730  0.00  0.00    +0.241 C 
ATOM     93  O   GLY A   6       7.264  36.104  34.553  0.00  0.00    -0.273 OA
ATOM     94  H   ASP A   7       5.913  38.049  32.448  0.00  0.00    +0.150 HD
BRANCH  92  95
ATOM     95  CA  GLY A   6       5.184  35.777  33.421  0.00  0.00    +0.149 C 
BRANCH  95  96
ATOM     96  N   GLY A   6       5.541  34.584  32.666  0.00  0.00    -0.297 N 
ATOM     97  H   GLY A   6       5.787  33.713  33.179  0.00  0.00    +0.150 HD
ATOM     98  C   LYS A   5       5.560  34.582  31.339  0.00  0.00    +0.243 C 
ATOM     99  O   LYS A   5       5.228  35.557  30.662  0.00  0.00    -0.273 OA
BRANCH  98 100
ATOM    100  CA  LYS A   5       6.010  33.299  30.670  0.00  0.00    +0.176 C 
BRANCH 100 101
ATOM    101  N   LYS A   5       5.792  33.417  29.242  0.00  0.00    -0.295 N 
ATOM    102  H   LYS A   5       5.181  34.177  28.881  0.00  0.00    +0.150 HD
ATOM    103  C   TRP A   4       6.357  32.574  28.386  0.00  0.00    +0.241 C 
ATOM    104  O   TRP A   4       7.050  31.620  28.733  0.00  0.00    -0.273 OA
BRANCH 103 105
ATOM    105  CA  TRP A   4       6.107  32.872  26.915  0.00  0.00    +0.153 C 
BRANCH 105 106
ATOM    106  N   TRP A   4       6.604  31.835  26.016  0.00  0.00    -0.297 N 
ATOM    107  H   TRP A   4       6.721  30.861  26.360  0.00  0.00    +0.150 HD
ATOM    108  C   SER A   3       6.907  32.135  24.759  0.00  0.00    +0.243 C 
ATOM    109  O   SER A   3       6.778  33.272  24.305  0.00  0.00    -0.273 OA
BRANCH 108 110
ATOM    110  CA  SER A   3       7.419  31.000  23.874  0.00  0.00    +0.178 C 
BRANCH 110 111
ATOM    111  N   SER A   3       8.721  30.478  24.279  0.00  0.00    -0.295 N 
ATOM    112  H   SER A   3       8.844  30.107  25.243  0.00  0.00    +0.150 HD
ATOM    113  C   VAL A   2       9.754  30.467  23.440  0.00  0.00    +0.241 C 
ATOM    114  O   VAL A   2       9.731  31.037  22.346  0.00  0.00    -0.273 OA
BRANCH 113 115
ATOM    115  CA  VAL A   2      10.995  29.690  23.888  0.00  0.00    +0.148 C 
BRANCH 115 116
ATOM    116  N   VAL A   2      11.250  28.615  22.924  0.00  0.00    -0.297 N 
ATOM    117  C   ILE A   1      10.313  27.707  22.653  0.00  0.00    +0.238 C 
ATOM    118  O   ILE A   1       9.234  27.670  23.241  0.00  0.00    -0.274 OA
ATOM    119  H   VAL A   2      12.172  28.561  22.446  0.00  0.00    +0.150 HD
BRANCH 117 120
ATOM    120  CA  ILE A   1      10.618  26.685  21.559  0.00  0.00    +0.145 C 
BRANCH 120 121
ATOM    121  CB  ILE A   1       9.722  27.009  20.345  0.00  0.00    +0.025 C 
ATOM    122  CG2 ILE A   1      10.073  28.399  19.802  0.00  0.00    +0.002 C 
BRANCH 121 123
ATOM    123  CG1 ILE A   1       9.888  25.933  19.267  0.00  0.00    +0.002 C 
ATOM    124  CD1 ILE A   1       8.815  25.963  18.194  0.00  0.00    +0.000 C 
ENDBRANCH 121 123
ENDBRANCH 120 121
BRANCH 120 125
ATOM    125  N   ILE A   1      10.326  25.357  22.093  0.00  0.00    -0.238 NA
ATOM    126  H   ILE A   1       9.400  25.187  22.534  0.00  0.00    +0.142 HD
ENDBRANCH 120 125
ENDBRANCH 117 120
ENDBRANCH 115 116
BRANCH 115 127
ATOM    127  CB  VAL A   2      12.196  30.671  23.982  0.00  0.00    +0.027 C 
ATOM    128  CG2 VAL A   2      11.890  31.786  24.991  0.00  0.00    +0.002 C 
ATOM    129  CG1 VAL A   2      13.455  29.920  24.399  0.00  0.00    +0.002 C 
ENDBRANCH 115 127
ENDBRANCH 113 115
ENDBRANCH 110 111
BRANCH 110 130
ATOM    130  CB  SER A   3       6.389  29.864  23.846  0.00  0.00    +0.166 C 
BRANCH 130 131
ATOM    131  OG  SER A   3       5.128  30.322  23.383  0.00  0.00    -0.380 OA
ATOM    132  H   SER A   3       4.486  29.568  23.376  0.00  0.00    +0.211 HD
ENDBRANCH 130 131
ENDBRANCH 110 130
ENDBRANCH 108 110
ENDBRANCH 105 106
BRANCH 105 133
ATOM    133  CB  TRP A   4       4.608  33.124  26.678  0.00  0.00    +0.057 C 
BRANCH 133 134
ATOM    134  CG  TRP A   4       3.700  31.957  26.951  0.00  0.00    -0.002 A 
ATOM    135  CD2 TRP A   4       2.871  31.761  28.108  0.00  0.00    +0.013 A 
ATOM    136  CE3 TRP A   4       2.665  32.482  29.289  0.00  0.00    +0.001 A 
ATOM    137  CZ3 TRP A   4       1.762  31.990  30.222  0.00  0.00    +0.000 A 
ATOM    138  CH2 TRP A   4       1.064  30.795  29.995  0.00  0.00    +0.001 A 
ATOM    139  CZ2 TRP A   4       1.245  30.070  28.848  0.00  0.00    +0.017 A 
ATOM    140  CE2 TRP A   4       2.154  30.564  27.909  0.00  0.00    +0.056 A 
ATOM    141  NE1 TRP A   4       2.530  30.058  26.692  0.00  0.00    -0.352 N 
ATOM    142  HE1 TRP A   4       2.171  29.180  26.266  0.00  0.00    +0.166 HD
ATOM    143  CD1 TRP A   4       3.458  30.899  26.126  0.00  0.00    +0.068 A 
ENDBRANCH 133 134
ENDBRANCH 105 133
ENDBRANCH 103 105
ENDBRANCH 100 101
ENDBRANCH  98 100
ENDBRANCH  95  96
BRANCH  95 144
ATOM    144  CB  GLY A   6       4.482  35.375  34.723  0.00  0.00    +0.039 C 
BRANCH 144 145
ATOM    145  CG  GLY A   6       4.015  36.546  35.568  0.00  0.00    +0.087 C 
BRANCH 145 146
ATOM    146  CD  GLY A   6       3.030  37.432  34.833  0.00  0.00    +0.219 C 
ATOM    147  OE1 GLY A   6       3.254  38.634  34.680  0.00  0.00    -0.275 OA
ATOM    148  NE2 GLY A   6       1.933  36.842  34.370  0.00  0.00    -0.329 N 
ATOM    149 HE21 GLY A   6       1.786  35.824  34.523  0.00  0.00    +0.145 HD
ATOM    150 HE22 GLY A   6       1.221  37.398  33.855  0.00  0.00    +0.145 HD
ENDBRANCH 145 146
ENDBRANCH 144 145
ENDBRANCH  95 144
ENDBRANCH  92  95
ENDBRANCH  90  91
ENDBRANCH  88  90
ENDBRANCH  85  86
BRANCH  85 151
ATOM    151  C   SER A   8      12.002  36.446  34.642  0.00  0.00    +0.242 C 
ATOM    152  O   SER A   8      12.392  37.316  35.419  0.00  0.00    -0.273 OA
ATOM    153  N   GLY A   9      12.088  35.147  34.906  0.00  0.00    -0.297 N 
ATOM    154  H   GLY A   9      11.786  34.461  34.185  0.00  0.00    +0.150 HD
BRANCH 153 155
ATOM    155  CA  GLY A   9      12.596  34.660  36.184  0.00  0.00    +0.149 C 
ATOM    156  CB  GLY A   9      14.073  35.018  36.330  0.00  0.00    +0.031 C 
BRANCH 155 157
ATOM    157  C   GLY A   9      11.790  35.258  37.338  0.00  0.00    +0.241 C 
ATOM    158  O   GLY A   9      12.353  35.739  38.325  0.00  0.00    -0.273 OA
ATOM    159  N   GLY A  10      10.469  35.230  37.204  0.00  0.00    -0.296 N 
ATOM    160  H   GLY A  10      10.056  34.814  36.345  0.00  0.00    +0.150 HD
BRANCH 159 161
ATOM    161  CA  GLY A  10       9.583  35.767  38.229  0.00  0.00    +0.164 C 
BRANCH 161 162
ATOM    162  CB  GLY A  10       8.243  36.213  37.619  0.00  0.00    +0.136 C 
ATOM    163  CG2 GLY A  10       7.304  36.726  38.702  0.00  0.00    +0.034 C 
BRANCH 162 164
ATOM    164  OG1 GLY A  10       8.480  37.256  36.665  0.00  0.00    -0.382 OA
ATOM    165  HG1 GLY A  10       7.618  37.544  36.272  0.00  0.00    +0.210 HD
ENDBRANCH 162 164
ENDBRANCH 161 162
BRANCH 161 166
ATOM    166  C   GLY A  10       9.313  34.704  39.284  0.00  0.00    +0.229 C 
ATOM    167  O   GLY A  10       8.942  33.579  38.957  0.00  0.00    -0.286 OA
ENDBRANCH 161 166
ENDBRANCH 159 161
ENDBRANCH 155 157
ENDBRANCH 153 155
ENDBRANCH  85 151
ENDBRANCH   1  85
TORSDOF 75
REMARK  Name = ../refined-set-2016/4ish/4ish_pocket.pdb
REMARK  202 active torsions:
REMARK  status: ('A' for Active; 'I' for Inactive)
REMARK    1  A    between atoms: _1  and  _5
REMARK    2  A    between atoms: _5  and  _6
REMARK    3  A    between atoms: _5  and  _8
REMARK    4  A    between atoms: _8  and  _9
REMARK    5  A    between atoms: _12  and  _14
REMARK    6  A    between atoms: _14  and  _15
REMARK    7  A    between atoms: _14  and  _17
REMARK    8  A    between atoms: _20  and  _22
REMARK    9  A    between atoms: _22  and  _23
REMARK   10  A    between atoms: _22  and  _25
REMARK   11  A    between atoms: _25  and  _26
REMARK   12  A    between atoms: _26  and  _27
REMARK   13  A    between atoms: _32  and  _34
REMARK   14  A    between atoms: _34  and  _35
REMARK   15  A    between atoms: _34  and  _37
REMARK   16  A    between atoms: _37  and  _38
REMARK   17  A    between atoms: _41  and  _43
REMARK   18  A    between atoms: _43  and  _44
REMARK   19  A    between atoms: _43  and  _46
REMARK   20  A    between atoms: _46  and  _47
REMARK   21  A    between atoms: _47  and  _77
REMARK   22  A    between atoms: _48  and  _50
REMARK   23  A    between atoms: _50  and  _51
REMARK   24  A    between atoms: _54  and  _56
REMARK   25  A    between atoms: _56  and  _57
REMARK   26  A    between atoms: _60  and  _62
REMARK   27  A    between atoms: _62  and  _63
REMARK   28  A    between atoms: _62  and  _65
REMARK   29  A    between atoms: _65  and  _66
REMARK   30  A    between atoms: _71  and  _73
REMARK   31  A    between atoms: _73  and  _74
REMARK   32  A    between atoms: _73  and  _76
REMARK   33  A    between atoms: _76  and  _77
REMARK   34  A    between atoms: _78  and  _80
REMARK   35  A    between atoms: _80  and  _81
REMARK   36  A    between atoms: _80  and  _83
REMARK   37  A    between atoms: _83  and  _84
REMARK   38  A    between atoms: _90  and  _92
REMARK   39  A    between atoms: _92  and  _93
REMARK   40  A    between atoms: _92  and  _95
REMARK   41  A    between atoms: _95  and  _96
REMARK   42  A    between atoms: _99  and  _101
REMARK   43  A    between atoms: _101  and  _102
REMARK   44  A    between atoms: _101  and  _104
REMARK   45  A    between atoms: _104  and  _105
REMARK   46  A    between atoms: _105  and  _106
REMARK   47  A    between atoms: _106  and  _107
REMARK   48  A    between atoms: _107  and  _108
REMARK   49  A    between atoms: _112  and  _114
REMARK   50  A    between atoms: _114  and  _115
REMARK   51  A    between atoms: _114  and  _117
REMARK   52  A    between atoms: _117  and  _118
REMARK   53  A    between atoms: _123  and  _124
REMARK   54  A    between atoms: _126  and  _128
REMARK   55  A    between atoms: _128  and  _129
REMARK   56  A    between atoms: _128  and  _131
REMARK   57  A    between atoms: _135  and  _136
REMARK   58  A    between atoms: _141  and  _143
REMARK   59  A    between atoms: _143  and  _144
REMARK   60  A    between atoms: _146  and  _148
REMARK   61  A    between atoms: _148  and  _149
REMARK   62  A    between atoms: _148  and  _151
REMARK   63  A    between atoms: _151  and  _152
REMARK   64  A    between atoms: _155  and  _157
REMARK   65  A    between atoms: _157  and  _158
REMARK   66  A    between atoms: _157  and  _160
REMARK   67  A    between atoms: _160  and  _161
REMARK   68  A    between atoms: _164  and  _166
REMARK   69  A    between atoms: _166  and  _167
REMARK   70  A    between atoms: _166  and  _169
REMARK   71  A    between atoms: _169  and  _170
REMARK   72  A    between atoms: _175  and  _177
REMARK   73  A    between atoms: _177  and  _178
REMARK   74  A    between atoms: _177  and  _180
REMARK   75  A    between atoms: _180  and  _181
REMARK   76  A    between atoms: _184  and  _186
REMARK   77  A    between atoms: _186  and  _187
REMARK   78  A    between atoms: _186  and  _189
REMARK   79  A    between atoms: _192  and  _194
REMARK   80  A    between atoms: _194  and  _195
REMARK   81  A    between atoms: _194  and  _197
REMARK   82  A    between atoms: _197  and  _198
REMARK   83  A    between atoms: _198  and  _199
REMARK   84  A    between atoms: _204  and  _206
REMARK   85  A    between atoms: _206  and  _207
REMARK   86  A    between atoms: _206  and  _209
REMARK   87  A    between atoms: _209  and  _210
REMARK   88  A    between atoms: _213  and  _215
REMARK   89  A    between atoms: _215  and  _216
REMARK   90  A    between atoms: _215  and  _218
REMARK   91  A    between atoms: _218  and  _219
REMARK   92  A    between atoms: _219  and  _220
REMARK   93  A    between atoms: _220  and  _221
REMARK   94  A    between atoms: _230  and  _232
REMARK   95  A    between atoms: _232  and  _233
REMARK   96  A    between atoms: _232  and  _235
REMARK   97  A    between atoms: _235  and  _236
REMARK   98  A    between atoms: _240  and  _241
REMARK   99  A    between atoms: _246  and  _248
REMARK  100  A    between atoms: _248  and  _249
REMARK  101  A    between atoms: _248  and  _251
REMARK  102  A    between atoms: _251  and  _252
REMARK  103  A    between atoms: _252  and  _253
REMARK  104  A    between atoms: _255  and  _257
REMARK  105  A    between atoms: _257  and  _258
REMARK  106  A    between atoms: _261  and  _263
REMARK  107  A    between atoms: _263  and  _264
REMARK  108  A    between atoms: _263  and  _266
REMARK  109  A    between atoms: _266  and  _267
REMARK  110  A    between atoms: _267  and  _268
REMARK  111  A    between atoms: _268  and  _269
REMARK  112  A    between atoms: _269  and  _270
REMARK  113  A    between atoms: _274  and  _276
REMARK  114  A    between atoms: _276  and  _277
REMARK  115  A    between atoms: _276  and  _279
REMARK  116  A    between atoms: _279  and  _280
REMARK  117  A    between atoms: _283  and  _285
REMARK  118  A    between atoms: _285  and  _286
REMARK  119  A    between atoms: _285  and  _288
REMARK  120  A    between atoms: _288  and  _289
REMARK  121  A    between atoms: _291  and  _293
REMARK  122  A    between atoms: _293  and  _294
REMARK  123  A    between atoms: _293  and  _296
REMARK  124  A    between atoms: _296  and  _297
REMARK  125  A    between atoms: _297  and  _412
REMARK  126  A    between atoms: _298  and  _300
REMARK  127  A    between atoms: _300  and  _301
REMARK  128  A    between atoms: _300  and  _303
REMARK  129  A    between atoms: _303  and  _304
REMARK  130  A    between atoms: _304  and  _305
REMARK  131  A    between atoms: _305  and  _306
REMARK  132  A    between atoms: _306  and  _307
REMARK  133  A    between atoms: _311  and  _313
REMARK  134  A    between atoms: _313  and  _314
REMARK  135  A    between atoms: _316  and  _318
REMARK  136  A    between atoms: _318  and  _319
REMARK  137  A    between atoms: _318  and  _321
REMARK  138  A    between atoms: _321  and  _322
REMARK  139  A    between atoms: _325  and  _327
REMARK  140  A    between atoms: _327  and  _328
REMARK  141  A    between atoms: _327  and  _330
REMARK  142  A    between atoms: _330  and  _331
REMARK  143  A    between atoms: _333  and  _335
REMARK  144  A    between atoms: _335  and  _336
REMARK  145  A    between atoms: _338  and  _340
REMARK  146  A    between atoms: _340  and  _341
REMARK  147  A    between atoms: _343  and  _345
REMARK  148  A    between atoms: _345  and  _346
REMARK  149  A    between atoms: _345  and  _348
REMARK  150  A    between atoms: _348  and  _349
REMARK  151  A    between atoms: _352  and  _354
REMARK  152  A    between atoms: _354  and  _355
REMARK  153  A    between atoms: _354  and  _357
REMARK  154  A    between atoms: _360  and  _362
REMARK  155  A    between atoms: _362  and  _363
REMARK  156  A    between atoms: _362  and  _365
REMARK  157  A    between atoms: _365  and  _366
REMARK  158  A    between atoms: _368  and  _370
REMARK  159  A    between atoms: _370  and  _371
REMARK  160  A    between atoms: _370  and  _373
REMARK  161  A    between atoms: _373  and  _374
REMARK  162  A    between atoms: _384  and  _386
REMARK  163  A    between atoms: _386  and  _387
REMARK  164  A    between atoms: _389  and  _391
REMARK  165  A    between atoms: _391  and  _392
REMARK  166  A    between atoms: _391  and  _394
REMARK  167  A    between atoms: _394  and  _395
REMARK  168  A    between atoms: _395  and  _396
REMARK  169  A    between atoms: _401  and  _403
REMARK  170  A    between atoms: _403  and  _404
REMARK  171  A    between atoms: _406  and  _408
REMARK  172  A    between atoms: _408  and  _409
REMARK  173  A    between atoms: _408  and  _411
REMARK  174  A    between atoms: _411  and  _412
REMARK  175  A    between atoms: _413  and  _415
REMARK  176  A    between atoms: _415  and  _416
REMARK  177  A    between atoms: _419  and  _421
REMARK  178  A    between atoms: _421  and  _422
REMARK  179  A    between atoms: _421  and  _424
REMARK  180  A    between atoms: _424  and  _425
REMARK  181  A    between atoms: _428  and  _430
REMARK  182  A    between atoms: _430  and  _431
REMARK  183  A    between atoms: _430  and  _433
REMARK  184  A    between atoms: _433  and  _434
REMARK  185  A    between atoms: _439  and  _441
REMARK  186  A    between atoms: _441  and  _442
REMARK  187  A    between atoms: _441  and  _444
REMARK  188  A    between atoms: _444  and  _445
REMARK  189  A    between atoms: _451  and  _453
REMARK  190  A    between atoms: _453  and  _454
REMARK  191  A    between atoms: _456  and  _458
REMARK  192  A    between atoms: _458  and  _459
REMARK  193  A    between atoms: _458  and  _461
REMARK  194  A    between atoms: _464  and  _466
REMARK  195  A    between atoms: _466  and  _467
REMARK  196  A    between atoms: _466  and  _469
REMARK  197  A    between atoms: _469  and  _470
REMARK  198  A    between atoms: _475  and  _476
REMARK  199  A    between atoms: _478  and  _480
REMARK  200  A    between atoms: _480  and  _481
REMARK  201  A    between atoms: _480  and  _483
REMARK  202  A    between atoms: _483  and  _484
REMARK                            x       y       z     vdW  Elec       q    Type
REMARK                         _______ _______ _______ _____ _____    ______ ____
ROOT
ATOM      1  C   GLY A   3       8.168  28.542  30.797  0.00  0.00    +0.243 C 
ATOM      2  O   GLY A   3       8.067  27.386  31.206  0.00  0.00    -0.273 OA
ATOM      3  N   VAL A   4       7.484  28.993  29.752  0.00  0.00    -0.297 N 
ATOM      4  H   VAL A   4       7.590  29.986  29.462  0.00  0.00    +0.150 HD
ENDROOT
BRANCH   3   5
ATOM      5  CA  VAL A   4       6.588  28.121  29.006  0.00  0.00    +0.149 C 
BRANCH   5   6
ATOM      6  C   VAL A   4       7.099  27.988  27.580  0.00  0.00    +0.241 C 
ATOM      7  N   TYR A   5       7.104  26.756  27.079  0.00  0.00    -0.297 N 
ATOM      8  H   TYR A   5       6.624  25.998  27.605  0.00  0.00    +0.150 HD
ATOM      9  O   VAL A   4       7.485  28.977  26.955  0.00  0.00    -0.273 OA
BRANCH   7  10
ATOM     10  CA  TYR A   5       7.758  26.432  25.819  0.00  0.00    +0.153 C 
BRANCH  10  11
ATOM     11  C   TYR A   5       6.779  25.716  24.900  0.00  0.00    +0.241 C 
ATOM     12  O   TYR A   5       5.940  24.937  25.356  0.00  0.00    -0.273 OA
ATOM     13  N   THR A   6       6.880  25.975  23.604  0.00  0.00    -0.296 N 
ATOM     14  H   THR A   6       7.573  26.673  23.266  0.00  0.00    +0.150 HD
BRANCH  13  15
ATOM     15  CA  THR A   6       6.023  25.284  22.655  0.00  0.00    +0.164 C 
BRANCH  15  16
ATOM     16  CB  THR A   6       6.173  25.885  21.248  0.00  0.00    +0.136 C 
ATOM     17  CG2 THR A   6       5.168  25.257  20.290  0.00  0.00    +0.034 C 
BRANCH  16  18
ATOM     18  OG1 THR A   6       5.940  27.297  21.316  0.00  0.00    -0.382 OA
ATOM     19  HG1 THR A   6       6.035  27.690  20.412  0.00  0.00    +0.210 HD
ENDBRANCH  16  18
ENDBRANCH  15  16
BRANCH  15  20
ATOM     20  C   THR A   6       6.435  23.814  22.626  0.00  0.00    +0.229 C 
ATOM     21  O   THR A   6       7.619  23.501  22.528  0.00  0.00    -0.286 OA
ENDBRANCH  15  20
ENDBRANCH  13  15
ENDBRANCH  10  11
BRANCH  10  22
ATOM     22  CB  TYR A   5       8.973  25.535  26.085  0.00  0.00    +0.055 C 
BRANCH  22  23
ATOM     23  CG  TYR A   5      10.054  26.218  26.892  0.00  0.00    -0.020 A 
ATOM     24  CD2 TYR A   5       9.977  26.297  28.282  0.00  0.00    -0.001 A 
ATOM     25  CE2 TYR A   5      10.934  26.977  29.010  0.00  0.00    +0.036 A 
ATOM     26  CZ  TYR A   5      11.985  27.584  28.356  0.00  0.00    +0.134 A 
ATOM     27  CE1 TYR A   5      12.088  27.512  26.981  0.00  0.00    +0.036 A 
ATOM     28  CD1 TYR A   5      11.128  26.833  26.260  0.00  0.00    -0.001 A 
BRANCH  26  29
ATOM     29  OH  TYR A   5      12.931  28.287  29.068  0.00  0.00    -0.506 OA
ATOM     30  HH  TYR A   5      12.716  28.243  30.033  0.00  0.00    +0.292 HD
ENDBRANCH  26  29
ENDBRANCH  22  23
ENDBRANCH  10  22
ENDBRANCH   7  10
ENDBRANCH   5   6
BRANCH   5  31
ATOM     31  CB  VAL A   4       5.148  28.677  28.981  0.00  0.00    +0.027 C 
ATOM     32  CG2 VAL A   4       4.676  28.962  30.398  0.00  0.00    +0.002 C 
ATOM     33  CG1 VAL A   4       4.215  27.672  28.309  0.00  0.00    +0.002 C 
ENDBRANCH   5  31
ENDBRANCH   3   5
BRANCH   1  34
ATOM     34  CA  GLY A   3       9.092  29.528  31.485  0.00  0.00    +0.176 C 
BRANCH  34  37
ATOM     35  C   PHE A   2       8.121  29.478  33.692  0.00  0.00    +0.241 C 
ATOM     36  O   PHE A   2       7.120  30.082  33.311  0.00  0.00    -0.273 OA
ATOM     37  N   GLY A   3       9.170  29.249  32.908  0.00  0.00    -0.295 N 
ATOM     38  H   GLY A   3      10.049  28.869  33.315  0.00  0.00    +0.150 HD
BRANCH  35  39
ATOM     39  CA  PHE A   2       8.209  28.943  35.117  0.00  0.00    +0.153 C 
BRANCH  39  42
ATOM     40  C   HIS A   1       7.668  30.418  36.994  0.00  0.00    +0.239 C 
ATOM     41  O   HIS A   1       8.845  30.542  37.330  0.00  0.00    -0.274 OA
ATOM     42  N   PHE A   2       7.272  29.667  35.970  0.00  0.00    -0.297 N 
ATOM     43  H   PHE A   2       6.254  29.593  35.769  0.00  0.00    +0.150 HD
BRANCH  40  44
ATOM     44  CA  HIS A   1       6.557  31.131  37.755  0.00  0.00    +0.151 C 
BRANCH  44  45
ATOM     45  N   HIS A   1       6.901  31.394  39.149  0.00  0.00    -0.238 NA
ATOM     46  H   HIS A   1       7.847  31.757  39.385  0.00  0.00    +0.142 HD
ENDBRANCH  44  45
BRANCH  44  47
ATOM     47  CB  HIS A   1       6.206  32.442  37.049  0.00  0.00    +0.074 C 
BRANCH  47  48
ATOM     48  CG  HIS A   1       4.992  33.115  37.609  0.00  0.00    +0.082 A 
ATOM     49  CD2 HIS A   1       4.863  34.110  38.518  0.00  0.00    +0.115 A 
ATOM     50  NE2 HIS A   1       3.518  34.325  38.695  0.00  0.00    -0.221 NA
ATOM     51  CE1 HIS A   1       2.845  33.493  37.921  0.00  0.00    +0.199 A 
ATOM     52  ND1 HIS A   1       3.711  32.752  37.254  0.00  0.00    -0.227 NA
ENDBRANCH  47  48
ENDBRANCH  44  47
ENDBRANCH  40  44
ENDBRANCH  39  42
BRANCH  39  53
ATOM     53  CB  PHE A   2       7.875  27.447  35.113  0.00  0.00    +0.055 C 
BRANCH  53  54
ATOM     54  CG  PHE A   2       8.041  26.785  36.451  0.00  0.00    -0.020 A 
ATOM     55  CD2 PHE A   2       6.975  26.696  37.331  0.00  0.00    -0.004 A 
ATOM     56  CE2 PHE A   2       7.130  26.104  38.572  0.00  0.00    -0.000 A 
ATOM     57  CZ  PHE A   2       8.357  25.592  38.944  0.00  0.00    -0.000 A 
ATOM     58  CE1 PHE A   2       9.428  25.673  38.075  0.00  0.00    -0.000 A 
ATOM     59  CD1 PHE A   2       9.267  26.266  36.835  0.00  0.00    -0.004 A 
ENDBRANCH  53  54
ENDBRANCH  39  53
ENDBRANCH  35  39
ENDBRANCH  34  37
ENDBRANCH   1  34
TORSDOF 22
REMARK  Name = ../refined-set-2016/4ish/4ish_pocket.pdb
REMARK  202 active torsions:
REMARK  status: ('A' for Active; 'I' for Inactive)
REMARK    1  A    between atoms: _1  and  _5
REMARK    2  A    between atoms: _5  and  _6
REMARK    3  A    between atoms: _5  and  _8
REMARK    4  A    between atoms: _8  and  _9
REMARK    5  A    between atoms: _12  and  _14
REMARK    6  A    between atoms: _14  and  _15
REMARK    7  A    between atoms: _14  and  _17
REMARK    8  A    between atoms: _20  and  _22
REMARK    9  A    between atoms: _22  and  _23
REMARK   10  A    between atoms: _22  and  _25
REMARK   11  A    between atoms: _25  and  _26
REMARK   12  A    between atoms: _26  and  _27
REMARK   13  A    between atoms: _32  and  _34
REMARK   14  A    between atoms: _34  and  _35
REMARK   15  A    between atoms: _34  and  _37
REMARK   16  A    between atoms: _37  and  _38
REMARK   17  A    between atoms: _41  and  _43
REMARK   18  A    between atoms: _43  and  _44
REMARK   19  A    between atoms: _43  and  _46
REMARK   20  A    between atoms: _46  and  _47
REMARK   21  A    between atoms: _47  and  _77
REMARK   22  A    between atoms: _48  and  _50
REMARK   23  A    between atoms: _50  and  _51
REMARK   24  A    between atoms: _54  and  _56
REMARK   25  A    between atoms: _56  and  _57
REMARK   26  A    between atoms: _60  and  _62
REMARK   27  A    between atoms: _62  and  _63
REMARK   28  A    between atoms: _62  and  _65
REMARK   29  A    between atoms: _65  and  _66
REMARK   30  A    between atoms: _71  and  _73
REMARK   31  A    between atoms: _73  and  _74
REMARK   32  A    between atoms: _73  and  _76
REMARK   33  A    between atoms: _76  and  _77
REMARK   34  A    between atoms: _78  and  _80
REMARK   35  A    between atoms: _80  and  _81
REMARK   36  A    between atoms: _80  and  _83
REMARK   37  A    between atoms: _83  and  _84
REMARK   38  A    between atoms: _90  and  _92
REMARK   39  A    between atoms: _92  and  _93
REMARK   40  A    between atoms: _92  and  _95
REMARK   41  A    between atoms: _95  and  _96
REMARK   42  A    between atoms: _99  and  _101
REMARK   43  A    between atoms: _101  and  _102
REMARK   44  A    between atoms: _101  and  _104
REMARK   45  A    between atoms: _104  and  _105
REMARK   46  A    between atoms: _105  and  _106
REMARK   47  A    between atoms: _106  and  _107
REMARK   48  A    between atoms: _107  and  _108
REMARK   49  A    between atoms: _112  and  _114
REMARK   50  A    between atoms: _114  and  _115
REMARK   51  A    between atoms: _114  and  _117
REMARK   52  A    between atoms: _117  and  _118
REMARK   53  A    between atoms: _123  and  _124
REMARK   54  A    between atoms: _126  and  _128
REMARK   55  A    between atoms: _128  and  _129
REMARK   56  A    between atoms: _128  and  _131
REMARK   57  A    between atoms: _135  and  _136
REMARK   58  A    between atoms: _141  and  _143
REMARK   59  A    between atoms: _143  and  _144
REMARK   60  A    between atoms: _146  and  _148
REMARK   61  A    between atoms: _148  and  _149
REMARK   62  A    between atoms: _148  and  _151
REMARK   63  A    between atoms: _151  and  _152
REMARK   64  A    between atoms: _155  and  _157
REMARK   65  A    between atoms: _157  and  _158
REMARK   66  A    between atoms: _157  and  _160
REMARK   67  A    between atoms: _160  and  _161
REMARK   68  A    between atoms: _164  and  _166
REMARK   69  A    between atoms: _166  and  _167
REMARK   70  A    between atoms: _166  and  _169
REMARK   71  A    between atoms: _169  and  _170
REMARK   72  A    between atoms: _175  and  _177
REMARK   73  A    between atoms: _177  and  _178
REMARK   74  A    between atoms: _177  and  _180
REMARK   75  A    between atoms: _180  and  _181
REMARK   76  A    between atoms: _184  and  _186
REMARK   77  A    between atoms: _186  and  _187
REMARK   78  A    between atoms: _186  and  _189
REMARK   79  A    between atoms: _192  and  _194
REMARK   80  A    between atoms: _194  and  _195
REMARK   81  A    between atoms: _194  and  _197
REMARK   82  A    between atoms: _197  and  _198
REMARK   83  A    between atoms: _198  and  _199
REMARK   84  A    between atoms: _204  and  _206
REMARK   85  A    between atoms: _206  and  _207
REMARK   86  A    between atoms: _206  and  _209
REMARK   87  A    between atoms: _209  and  _210
REMARK   88  A    between atoms: _213  and  _215
REMARK   89  A    between atoms: _215  and  _216
REMARK   90  A    between atoms: _215  and  _218
REMARK   91  A    between atoms: _218  and  _219
REMARK   92  A    between atoms: _219  and  _220
REMARK   93  A    between atoms: _220  and  _221
REMARK   94  A    between atoms: _230  and  _232
REMARK   95  A    between atoms: _232  and  _233
REMARK   96  A    between atoms: _232  and  _235
REMARK   97  A    between atoms: _235  and  _236
REMARK   98  A    between atoms: _240  and  _241
REMARK   99  A    between atoms: _246  and  _248
REMARK  100  A    between atoms: _248  and  _249
REMARK  101  A    between atoms: _248  and  _251
REMARK  102  A    between atoms: _251  and  _252
REMARK  103  A    between atoms: _252  and  _253
REMARK  104  A    between atoms: _255  and  _257
REMARK  105  A    between atoms: _257  and  _258
REMARK  106  A    between atoms: _261  and  _263
REMARK  107  A    between atoms: _263  and  _264
REMARK  108  A    between atoms: _263  and  _266
REMARK  109  A    between atoms: _266  and  _267
REMARK  110  A    between atoms: _267  and  _268
REMARK  111  A    between atoms: _268  and  _269
REMARK  112  A    between atoms: _269  and  _270
REMARK  113  A    between atoms: _274  and  _276
REMARK  114  A    between atoms: _276  and  _277
REMARK  115  A    between atoms: _276  and  _279
REMARK  116  A    between atoms: _279  and  _280
REMARK  117  A    between atoms: _283  and  _285
REMARK  118  A    between atoms: _285  and  _286
REMARK  119  A    between atoms: _285  and  _288
REMARK  120  A    between atoms: _288  and  _289
REMARK  121  A    between atoms: _291  and  _293
REMARK  122  A    between atoms: _293  and  _294
REMARK  123  A    between atoms: _293  and  _296
REMARK  124  A    between atoms: _296  and  _297
REMARK  125  A    between atoms: _297  and  _412
REMARK  126  A    between atoms: _298  and  _300
REMARK  127  A    between atoms: _300  and  _301
REMARK  128  A    between atoms: _300  and  _303
REMARK  129  A    between atoms: _303  and  _304
REMARK  130  A    between atoms: _304  and  _305
REMARK  131  A    between atoms: _305  and  _306
REMARK  132  A    between atoms: _306  and  _307
REMARK  133  A    between atoms: _311  and  _313
REMARK  134  A    between atoms: _313  and  _314
REMARK  135  A    between atoms: _316  and  _318
REMARK  136  A    between atoms: _318  and  _319
REMARK  137  A    between atoms: _318  and  _321
REMARK  138  A    between atoms: _321  and  _322
REMARK  139  A    between atoms: _325  and  _327
REMARK  140  A    between atoms: _327  and  _328
REMARK  141  A    between atoms: _327  and  _330
REMARK  142  A    between atoms: _330  and  _331
REMARK  143  A    between atoms: _333  and  _335
REMARK  144  A    between atoms: _335  and  _336
REMARK  145  A    between atoms: _338  and  _340
REMARK  146  A    between atoms: _340  and  _341
REMARK  147  A    between atoms: _343  and  _345
REMARK  148  A    between atoms: _345  and  _346
REMARK  149  A    between atoms: _345  and  _348
REMARK  150  A    between atoms: _348  and  _349
REMARK  151  A    between atoms: _352  and  _354
REMARK  152  A    between atoms: _354  and  _355
REMARK  153  A    between atoms: _354  and  _357
REMARK  154  A    between atoms: _360  and  _362
REMARK  155  A    between atoms: _362  and  _363
REMARK  156  A    between atoms: _362  and  _365
REMARK  157  A    between atoms: _365  and  _366
REMARK  158  A    between atoms: _368  and  _370
REMARK  159  A    between atoms: _370  and  _371
REMARK  160  A    between atoms: _370  and  _373
REMARK  161  A    between atoms: _373  and  _374
REMARK  162  A    between atoms: _384  and  _386
REMARK  163  A    between atoms: _386  and  _387
REMARK  164  A    between atoms: _389  and  _391
REMARK  165  A    between atoms: _391  and  _392
REMARK  166  A    between atoms: _391  and  _394
REMARK  167  A    between atoms: _394  and  _395
REMARK  168  A    between atoms: _395  and  _396
REMARK  169  A    between atoms: _401  and  _403
REMARK  170  A    between atoms: _403  and  _404
REMARK  171  A    between atoms: _406  and  _408
REMARK  172  A    between atoms: _408  and  _409
REMARK  173  A    between atoms: _408  and  _411
REMARK  174  A    between atoms: _411  and  _412
REMARK  175  A    between atoms: _413  and  _415
REMARK  176  A    between atoms: _415  and  _416
REMARK  177  A    between atoms: _419  and  _421
REMARK  178  A    between atoms: _421  and  _422
REMARK  179  A    between atoms: _421  and  _424
REMARK  180  A    between atoms: _424  and  _425
REMARK  181  A    between atoms: _428  and  _430
REMARK  182  A    between atoms: _430  and  _431
REMARK  183  A    between atoms: _430  and  _433
REMARK  184  A    between atoms: _433  and  _434
REMARK  185  A    between atoms: _439  and  _441
REMARK  186  A    between atoms: _441  and  _442
REMARK  187  A    between atoms: _441  and  _444
REMARK  188  A    between atoms: _444  and  _445
REMARK  189  A    between atoms: _451  and  _453
REMARK  190  A    between atoms: _453  and  _454
REMARK  191  A    between atoms: _456  and  _458
REMARK  192  A    between atoms: _458  and  _459
REMARK  193  A    between atoms: _458  and  _461
REMARK  194  A    between atoms: _464  and  _466
REMARK  195  A    between atoms: _466  and  _467
REMARK  196  A    between atoms: _466  and  _469
REMARK  197  A    between atoms: _469  and  _470
REMARK  198  A    between atoms: _475  and  _476
REMARK  199  A    between atoms: _478  and  _480
REMARK  200  A    between atoms: _480  and  _481
REMARK  201  A    between atoms: _480  and  _483
REMARK  202  A    between atoms: _483  and  _484
REMARK                            x       y       z     vdW  Elec       q    Type
REMARK                         _______ _______ _______ _____ _____    ______ ____
ROOT
ATOM      1  O   HOH     1       2.091  26.583  21.904  0.00  0.00    +0.000 OA
ENDROOT
TORSDOF 0
REMARK  Name = ../refined-set-2016/4ish/4ish_pocket.pdb
REMARK  202 active torsions:
REMARK  status: ('A' for Active; 'I' for Inactive)
REMARK    1  A    between atoms: _1  and  _5
REMARK    2  A    between atoms: _5  and  _6
REMARK    3  A    between atoms: _5  and  _8
REMARK    4  A    between atoms: _8  and  _9
REMARK    5  A    between atoms: _12  and  _14
REMARK    6  A    between atoms: _14  and  _15
REMARK    7  A    between atoms: _14  and  _17
REMARK    8  A    between atoms: _20  and  _22
REMARK    9  A    between atoms: _22  and  _23
REMARK   10  A    between atoms: _22  and  _25
REMARK   11  A    between atoms: _25  and  _26
REMARK   12  A    between atoms: _26  and  _27
REMARK   13  A    between atoms: _32  and  _34
REMARK   14  A    between atoms: _34  and  _35
REMARK   15  A    between atoms: _34  and  _37
REMARK   16  A    between atoms: _37  and  _38
REMARK   17  A    between atoms: _41  and  _43
REMARK   18  A    between atoms: _43  and  _44
REMARK   19  A    between atoms: _43  and  _46
REMARK   20  A    between atoms: _46  and  _47
REMARK   21  A    between atoms: _47  and  _77
REMARK   22  A    between atoms: _48  and  _50
REMARK   23  A    between atoms: _50  and  _51
REMARK   24  A    between atoms: _54  and  _56
REMARK   25  A    between atoms: _56  and  _57
REMARK   26  A    between atoms: _60  and  _62
REMARK   27  A    between atoms: _62  and  _63
REMARK   28  A    between atoms: _62  and  _65
REMARK   29  A    between atoms: _65  and  _66
REMARK   30  A    between atoms: _71  and  _73
REMARK   31  A    between atoms: _73  and  _74
REMARK   32  A    between atoms: _73  and  _76
REMARK   33  A    between atoms: _76  and  _77
REMARK   34  A    between atoms: _78  and  _80
REMARK   35  A    between atoms: _80  and  _81
REMARK   36  A    between atoms: _80  and  _83
REMARK   37  A    between atoms: _83  and  _84
REMARK   38  A    between atoms: _90  and  _92
REMARK   39  A    between atoms: _92  and  _93
REMARK   40  A    between atoms: _92  and  _95
REMARK   41  A    between atoms: _95  and  _96
REMARK   42  A    between atoms: _99  and  _101
REMARK   43  A    between atoms: _101  and  _102
REMARK   44  A    between atoms: _101  and  _104
REMARK   45  A    between atoms: _104  and  _105
REMARK   46  A    between atoms: _105  and  _106
REMARK   47  A    between atoms: _106  and  _107
REMARK   48  A    between atoms: _107  and  _108
REMARK   49  A    between atoms: _112  and  _114
REMARK   50  A    between atoms: _114  and  _115
REMARK   51  A    between atoms: _114  and  _117
REMARK   52  A    between atoms: _117  and  _118
REMARK   53  A    between atoms: _123  and  _124
REMARK   54  A    between atoms: _126  and  _128
REMARK   55  A    between atoms: _128  and  _129
REMARK   56  A    between atoms: _128  and  _131
REMARK   57  A    between atoms: _135  and  _136
REMARK   58  A    between atoms: _141  and  _143
REMARK   59  A    between atoms: _143  and  _144
REMARK   60  A    between atoms: _146  and  _148
REMARK   61  A    between atoms: _148  and  _149
REMARK   62  A    between atoms: _148  and  _151
REMARK   63  A    between atoms: _151  and  _152
REMARK   64  A    between atoms: _155  and  _157
REMARK   65  A    between atoms: _157  and  _158
REMARK   66  A    between atoms: _157  and  _160
REMARK   67  A    between atoms: _160  and  _161
REMARK   68  A    between atoms: _164  and  _166
REMARK   69  A    between atoms: _166  and  _167
REMARK   70  A    between atoms: _166  and  _169
REMARK   71  A    between atoms: _169  and  _170
REMARK   72  A    between atoms: _175  and  _177
REMARK   73  A    between atoms: _177  and  _178
REMARK   74  A    between atoms: _177  and  _180
REMARK   75  A    between atoms: _180  and  _181
REMARK   76  A    between atoms: _184  and  _186
REMARK   77  A    between atoms: _186  and  _187
REMARK   78  A    between atoms: _186  and  _189
REMARK   79  A    between atoms: _192  and  _194
REMARK   80  A    between atoms: _194  and  _195
REMARK   81  A    between atoms: _194  and  _197
REMARK   82  A    between atoms: _197  and  _198
REMARK   83  A    between atoms: _198  and  _199
REMARK   84  A    between atoms: _204  and  _206
REMARK   85  A    between atoms: _206  and  _207
REMARK   86  A    between atoms: _206  and  _209
REMARK   87  A    between atoms: _209  and  _210
REMARK   88  A    between atoms: _213  and  _215
REMARK   89  A    between atoms: _215  and  _216
REMARK   90  A    between atoms: _215  and  _218
REMARK   91  A    between atoms: _218  and  _219
REMARK   92  A    between atoms: _219  and  _220
REMARK   93  A    between atoms: _220  and  _221
REMARK   94  A    between atoms: _230  and  _232
REMARK   95  A    between atoms: _232  and  _233
REMARK   96  A    between atoms: _232  and  _235
REMARK   97  A    between atoms: _235  and  _236
REMARK   98  A    between atoms: _240  and  _241
REMARK   99  A    between atoms: _246  and  _248
REMARK  100  A    between atoms: _248  and  _249
REMARK  101  A    between atoms: _248  and  _251
REMARK  102  A    between atoms: _251  and  _252
REMARK  103  A    between atoms: _252  and  _253
REMARK  104  A    between atoms: _255  and  _257
REMARK  105  A    between atoms: _257  and  _258
REMARK  106  A    between atoms: _261  and  _263
REMARK  107  A    between atoms: _263  and  _264
REMARK  108  A    between atoms: _263  and  _266
REMARK  109  A    between atoms: _266  and  _267
REMARK  110  A    between atoms: _267  and  _268
REMARK  111  A    between atoms: _268  and  _269
REMARK  112  A    between atoms: _269  and  _270
REMARK  113  A    between atoms: _274  and  _276
REMARK  114  A    between atoms: _276  and  _277
REMARK  115  A    between atoms: _276  and  _279
REMARK  116  A    between atoms: _279  and  _280
REMARK  117  A    between atoms: _283  and  _285
REMARK  118  A    between atoms: _285  and  _286
REMARK  119  A    between atoms: _285  and  _288
REMARK  120  A    between atoms: _288  and  _289
REMARK  121  A    between atoms: _291  and  _293
REMARK  122  A    between atoms: _293  and  _294
REMARK  123  A    between atoms: _293  and  _296
REMARK  124  A    between atoms: _296  and  _297
REMARK  125  A    between atoms: _297  and  _412
REMARK  126  A    between atoms: _298  and  _300
REMARK  127  A    between atoms: _300  and  _301
REMARK  128  A    between atoms: _300  and  _303
REMARK  129  A    between atoms: _303  and  _304
REMARK  130  A    between atoms: _304  and  _305
REMARK  131  A    between atoms: _305  and  _306
REMARK  132  A    between atoms: _306  and  _307
REMARK  133  A    between atoms: _311  and  _313
REMARK  134  A    between atoms: _313  and  _314
REMARK  135  A    between atoms: _316  and  _318
REMARK  136  A    between atoms: _318  and  _319
REMARK  137  A    between atoms: _318  and  _321
REMARK  138  A    between atoms: _321  and  _322
REMARK  139  A    between atoms: _325  and  _327
REMARK  140  A    between atoms: _327  and  _328
REMARK  141  A    between atoms: _327  and  _330
REMARK  142  A    between atoms: _330  and  _331
REMARK  143  A    between atoms: _333  and  _335
REMARK  144  A    between atoms: _335  and  _336
REMARK  145  A    between atoms: _338  and  _340
REMARK  146  A    between atoms: _340  and  _341
REMARK  147  A    between atoms: _343  and  _345
REMARK  148  A    between atoms: _345  and  _346
REMARK  149  A    between atoms: _345  and  _348
REMARK  150  A    between atoms: _348  and  _349
REMARK  151  A    between atoms: _352  and  _354
REMARK  152  A    between atoms: _354  and  _355
REMARK  153  A    between atoms: _354  and  _357
REMARK  154  A    between atoms: _360  and  _362
REMARK  155  A    between atoms: _362  and  _363
REMARK  156  A    between atoms: _362  and  _365
REMARK  157  A    between atoms: _365  and  _366
REMARK  158  A    between atoms: _368  and  _370
REMARK  159  A    between atoms: _370  and  _371
REMARK  160  A    between atoms: _370  and  _373
REMARK  161  A    between atoms: _373  and  _374
REMARK  162  A    between atoms: _384  and  _386
REMARK  163  A    between atoms: _386  and  _387
REMARK  164  A    between atoms: _389  and  _391
REMARK  165  A    between atoms: _391  and  _392
REMARK  166  A    between atoms: _391  and  _394
REMARK  167  A    between atoms: _394  and  _395
REMARK  168  A    between atoms: _395  and  _396
REMARK  169  A    between atoms: _401  and  _403
REMARK  170  A    between atoms: _403  and  _404
REMARK  171  A    between atoms: _406  and  _408
REMARK  172  A    between atoms: _408  and  _409
REMARK  173  A    between atoms: _408  and  _411
REMARK  174  A    between atoms: _411  and  _412
REMARK  175  A    between atoms: _413  and  _415
REMARK  176  A    between atoms: _415  and  _416
REMARK  177  A    between atoms: _419  and  _421
REMARK  178  A    between atoms: _421  and  _422
REMARK  179  A    between atoms: _421  and  _424
REMARK  180  A    between atoms: _424  and  _425
REMARK  181  A    between atoms: _428  and  _430
REMARK  182  A    between atoms: _430  and  _431
REMARK  183  A    between atoms: _430  and  _433
REMARK  184  A    between atoms: _433  and  _434
REMARK  185  A    between atoms: _439  and  _441
REMARK  186  A    between atoms: _441  and  _442
REMARK  187  A    between atoms: _441  and  _444
REMARK  188  A    between atoms: _444  and  _445
REMARK  189  A    between atoms: _451  and  _453
REMARK  190  A    between atoms: _453  and  _454
REMARK  191  A    between atoms: _456  and  _458
REMARK  192  A    between atoms: _458  and  _459
REMARK  193  A    between atoms: _458  and  _461
REMARK  194  A    between atoms: _464  and  _466
REMARK  195  A    between atoms: _466  and  _467
REMARK  196  A    between atoms: _466  and  _469
REMARK  197  A    between atoms: _469  and  _470
REMARK  198  A    between atoms: _475  and  _476
REMARK  199  A    between atoms: _478  and  _480
REMARK  200  A    between atoms: _480  and  _481
REMARK  201  A    between atoms: _480  and  _483
REMARK  202  A    between atoms: _483  and  _484
REMARK                            x       y       z     vdW  Elec       q    Type
REMARK                         _______ _______ _______ _____ _____    ______ ____
ROOT
ATOM      1  O   HOH     1       2.706  35.976  13.665  0.00  0.00    +0.000 OA
ENDROOT
TORSDOF 0
REMARK  Name = ../refined-set-2016/4ish/4ish_pocket.pdb
REMARK  202 active torsions:
REMARK  status: ('A' for Active; 'I' for Inactive)
REMARK    1  A    between atoms: _1  and  _5
REMARK    2  A    between atoms: _5  and  _6
REMARK    3  A    between atoms: _5  and  _8
REMARK    4  A    between atoms: _8  and  _9
REMARK    5  A    between atoms: _12  and  _14
REMARK    6  A    between atoms: _14  and  _15
REMARK    7  A    between atoms: _14  and  _17
REMARK    8  A    between atoms: _20  and  _22
REMARK    9  A    between atoms: _22  and  _23
REMARK   10  A    between atoms: _22  and  _25
REMARK   11  A    between atoms: _25  and  _26
REMARK   12  A    between atoms: _26  and  _27
REMARK   13  A    between atoms: _32  and  _34
REMARK   14  A    between atoms: _34  and  _35
REMARK   15  A    between atoms: _34  and  _37
REMARK   16  A    between atoms: _37  and  _38
REMARK   17  A    between atoms: _41  and  _43
REMARK   18  A    between atoms: _43  and  _44
REMARK   19  A    between atoms: _43  and  _46
REMARK   20  A    between atoms: _46  and  _47
REMARK   21  A    between atoms: _47  and  _77
REMARK   22  A    between atoms: _48  and  _50
REMARK   23  A    between atoms: _50  and  _51
REMARK   24  A    between atoms: _54  and  _56
REMARK   25  A    between atoms: _56  and  _57
REMARK   26  A    between atoms: _60  and  _62
REMARK   27  A    between atoms: _62  and  _63
REMARK   28  A    between atoms: _62  and  _65
REMARK   29  A    between atoms: _65  and  _66
REMARK   30  A    between atoms: _71  and  _73
REMARK   31  A    between atoms: _73  and  _74
REMARK   32  A    between atoms: _73  and  _76
REMARK   33  A    between atoms: _76  and  _77
REMARK   34  A    between atoms: _78  and  _80
REMARK   35  A    between atoms: _80  and  _81
REMARK   36  A    between atoms: _80  and  _83
REMARK   37  A    between atoms: _83  and  _84
REMARK   38  A    between atoms: _90  and  _92
REMARK   39  A    between atoms: _92  and  _93
REMARK   40  A    between atoms: _92  and  _95
REMARK   41  A    between atoms: _95  and  _96
REMARK   42  A    between atoms: _99  and  _101
REMARK   43  A    between atoms: _101  and  _102
REMARK   44  A    between atoms: _101  and  _104
REMARK   45  A    between atoms: _104  and  _105
REMARK   46  A    between atoms: _105  and  _106
REMARK   47  A    between atoms: _106  and  _107
REMARK   48  A    between atoms: _107  and  _108
REMARK   49  A    between atoms: _112  and  _114
REMARK   50  A    between atoms: _114  and  _115
REMARK   51  A    between atoms: _114  and  _117
REMARK   52  A    between atoms: _117  and  _118
REMARK   53  A    between atoms: _123  and  _124
REMARK   54  A    between atoms: _126  and  _128
REMARK   55  A    between atoms: _128  and  _129
REMARK   56  A    between atoms: _128  and  _131
REMARK   57  A    between atoms: _135  and  _136
REMARK   58  A    between atoms: _141  and  _143
REMARK   59  A    between atoms: _143  and  _144
REMARK   60  A    between atoms: _146  and  _148
REMARK   61  A    between atoms: _148  and  _149
REMARK   62  A    between atoms: _148  and  _151
REMARK   63  A    between atoms: _151  and  _152
REMARK   64  A    between atoms: _155  and  _157
REMARK   65  A    between atoms: _157  and  _158
REMARK   66  A    between atoms: _157  and  _160
REMARK   67  A    between atoms: _160  and  _161
REMARK   68  A    between atoms: _164  and  _166
REMARK   69  A    between atoms: _166  and  _167
REMARK   70  A    between atoms: _166  and  _169
REMARK   71  A    between atoms: _169  and  _170
REMARK   72  A    between atoms: _175  and  _177
REMARK   73  A    between atoms: _177  and  _178
REMARK   74  A    between atoms: _177  and  _180
REMARK   75  A    between atoms: _180  and  _181
REMARK   76  A    between atoms: _184  and  _186
REMARK   77  A    between atoms: _186  and  _187
REMARK   78  A    between atoms: _186  and  _189
REMARK   79  A    between atoms: _192  and  _194
REMARK   80  A    between atoms: _194  and  _195
REMARK   81  A    between atoms: _194  and  _197
REMARK   82  A    between atoms: _197  and  _198
REMARK   83  A    between atoms: _198  and  _199
REMARK   84  A    between atoms: _204  and  _206
REMARK   85  A    between atoms: _206  and  _207
REMARK   86  A    between atoms: _206  and  _209
REMARK   87  A    between atoms: _209  and  _210
REMARK   88  A    between atoms: _213  and  _215
REMARK   89  A    between atoms: _215  and  _216
REMARK   90  A    between atoms: _215  and  _218
REMARK   91  A    between atoms: _218  and  _219
REMARK   92  A    between atoms: _219  and  _220
REMARK   93  A    between atoms: _220  and  _221
REMARK   94  A    between atoms: _230  and  _232
REMARK   95  A    between atoms: _232  and  _233
REMARK   96  A    between atoms: _232  and  _235
REMARK   97  A    between atoms: _235  and  _236
REMARK   98  A    between atoms: _240  and  _241
REMARK   99  A    between atoms: _246  and  _248
REMARK  100  A    between atoms: _248  and  _249
REMARK  101  A    between atoms: _248  and  _251
REMARK  102  A    between atoms: _251  and  _252
REMARK  103  A    between atoms: _252  and  _253
REMARK  104  A    between atoms: _255  and  _257
REMARK  105  A    between atoms: _257  and  _258
REMARK  106  A    between atoms: _261  and  _263
REMARK  107  A    between atoms: _263  and  _264
REMARK  108  A    between atoms: _263  and  _266
REMARK  109  A    between atoms: _266  and  _267
REMARK  110  A    between atoms: _267  and  _268
REMARK  111  A    between atoms: _268  and  _269
REMARK  112  A    between atoms: _269  and  _270
REMARK  113  A    between atoms: _274  and  _276
REMARK  114  A    between atoms: _276  and  _277
REMARK  115  A    between atoms: _276  and  _279
REMARK  116  A    between atoms: _279  and  _280
REMARK  117  A    between atoms: _283  and  _285
REMARK  118  A    between atoms: _285  and  _286
REMARK  119  A    between atoms: _285  and  _288
REMARK  120  A    between atoms: _288  and  _289
REMARK  121  A    between atoms: _291  and  _293
REMARK  122  A    between atoms: _293  and  _294
REMARK  123  A    between atoms: _293  and  _296
REMARK  124  A    between atoms: _296  and  _297
REMARK  125  A    between atoms: _297  and  _412
REMARK  126  A    between atoms: _298  and  _300
REMARK  127  A    between atoms: _300  and  _301
REMARK  128  A    between atoms: _300  and  _303
REMARK  129  A    between atoms: _303  and  _304
REMARK  130  A    between atoms: _304  and  _305
REMARK  131  A    between atoms: _305  and  _306
REMARK  132  A    between atoms: _306  and  _307
REMARK  133  A    between atoms: _311  and  _313
REMARK  134  A    between atoms: _313  and  _314
REMARK  135  A    between atoms: _316  and  _318
REMARK  136  A    between atoms: _318  and  _319
REMARK  137  A    between atoms: _318  and  _321
REMARK  138  A    between atoms: _321  and  _322
REMARK  139  A    between atoms: _325  and  _327
REMARK  140  A    between atoms: _327  and  _328
REMARK  141  A    between atoms: _327  and  _330
REMARK  142  A    between atoms: _330  and  _331
REMARK  143  A    between atoms: _333  and  _335
REMARK  144  A    between atoms: _335  and  _336
REMARK  145  A    between atoms: _338  and  _340
REMARK  146  A    between atoms: _340  and  _341
REMARK  147  A    between atoms: _343  and  _345
REMARK  148  A    between atoms: _345  and  _346
REMARK  149  A    between atoms: _345  and  _348
REMARK  150  A    between atoms: _348  and  _349
REMARK  151  A    between atoms: _352  and  _354
REMARK  152  A    between atoms: _354  and  _355
REMARK  153  A    between atoms: _354  and  _357
REMARK  154  A    between atoms: _360  and  _362
REMARK  155  A    between atoms: _362  and  _363
REMARK  156  A    between atoms: _362  and  _365
REMARK  157  A    between atoms: _365  and  _366
REMARK  158  A    between atoms: _368  and  _370
REMARK  159  A    between atoms: _370  and  _371
REMARK  160  A    between atoms: _370  and  _373
REMARK  161  A    between atoms: _373  and  _374
REMARK  162  A    between atoms: _384  and  _386
REMARK  163  A    between atoms: _386  and  _387
REMARK  164  A    between atoms: _389  and  _391
REMARK  165  A    between atoms: _391  and  _392
REMARK  166  A    between atoms: _391  and  _394
REMARK  167  A    between atoms: _394  and  _395
REMARK  168  A    between atoms: _395  and  _396
REMARK  169  A    between atoms: _401  and  _403
REMARK  170  A    between atoms: _403  and  _404
REMARK  171  A    between atoms: _406  and  _408
REMARK  172  A    between atoms: _408  and  _409
REMARK  173  A    between atoms: _408  and  _411
REMARK  174  A    between atoms: _411  and  _412
REMARK  175  A    between atoms: _413  and  _415
REMARK  176  A    between atoms: _415  and  _416
REMARK  177  A    between atoms: _419  and  _421
REMARK  178  A    between atoms: _421  and  _422
REMARK  179  A    between atoms: _421  and  _424
REMARK  180  A    between atoms: _424  and  _425
REMARK  181  A    between atoms: _428  and  _430
REMARK  182  A    between atoms: _430  and  _431
REMARK  183  A    between atoms: _430  and  _433
REMARK  184  A    between atoms: _433  and  _434
REMARK  185  A    between atoms: _439  and  _441
REMARK  186  A    between atoms: _441  and  _442
REMARK  187  A    between atoms: _441  and  _444
REMARK  188  A    between atoms: _444  and  _445
REMARK  189  A    between atoms: _451  and  _453
REMARK  190  A    between atoms: _453  and  _454
REMARK  191  A    between atoms: _456  and  _458
REMARK  192  A    between atoms: _458  and  _459
REMARK  193  A    between atoms: _458  and  _461
REMARK  194  A    between atoms: _464  and  _466
REMARK  195  A    between atoms: _466  and  _467
REMARK  196  A    between atoms: _466  and  _469
REMARK  197  A    between atoms: _469  and  _470
REMARK  198  A    between atoms: _475  and  _476
REMARK  199  A    between atoms: _478  and  _480
REMARK  200  A    between atoms: _480  and  _481
REMARK  201  A    between atoms: _480  and  _483
REMARK  202  A    between atoms: _483  and  _484
REMARK                            x       y       z     vdW  Elec       q    Type
REMARK                         _______ _______ _______ _____ _____    ______ ____
ROOT
ATOM      1  O   HOH     1      12.601  28.607  31.720  0.00  0.00    +0.000 OA
ENDROOT
TORSDOF 0
REMARK  Name = ../refined-set-2016/4ish/4ish_pocket.pdb
REMARK  202 active torsions:
REMARK  status: ('A' for Active; 'I' for Inactive)
REMARK    1  A    between atoms: _1  and  _5
REMARK    2  A    between atoms: _5  and  _6
REMARK    3  A    between atoms: _5  and  _8
REMARK    4  A    between atoms: _8  and  _9
REMARK    5  A    between atoms: _12  and  _14
REMARK    6  A    between atoms: _14  and  _15
REMARK    7  A    between atoms: _14  and  _17
REMARK    8  A    between atoms: _20  and  _22
REMARK    9  A    between atoms: _22  and  _23
REMARK   10  A    between atoms: _22  and  _25
REMARK   11  A    between atoms: _25  and  _26
REMARK   12  A    between atoms: _26  and  _27
REMARK   13  A    between atoms: _32  and  _34
REMARK   14  A    between atoms: _34  and  _35
REMARK   15  A    between atoms: _34  and  _37
REMARK   16  A    between atoms: _37  and  _38
REMARK   17  A    between atoms: _41  and  _43
REMARK   18  A    between atoms: _43  and  _44
REMARK   19  A    between atoms: _43  and  _46
REMARK   20  A    between atoms: _46  and  _47
REMARK   21  A    between atoms: _47  and  _77
REMARK   22  A    between atoms: _48  and  _50
REMARK   23  A    between atoms: _50  and  _51
REMARK   24  A    between atoms: _54  and  _56
REMARK   25  A    between atoms: _56  and  _57
REMARK   26  A    between atoms: _60  and  _62
REMARK   27  A    between atoms: _62  and  _63
REMARK   28  A    between atoms: _62  and  _65
REMARK   29  A    between atoms: _65  and  _66
REMARK   30  A    between atoms: _71  and  _73
REMARK   31  A    between atoms: _73  and  _74
REMARK   32  A    between atoms: _73  and  _76
REMARK   33  A    between atoms: _76  and  _77
REMARK   34  A    between atoms: _78  and  _80
REMARK   35  A    between atoms: _80  and  _81
REMARK   36  A    between atoms: _80  and  _83
REMARK   37  A    between atoms: _83  and  _84
REMARK   38  A    between atoms: _90  and  _92
REMARK   39  A    between atoms: _92  and  _93
REMARK   40  A    between atoms: _92  and  _95
REMARK   41  A    between atoms: _95  and  _96
REMARK   42  A    between atoms: _99  and  _101
REMARK   43  A    between atoms: _101  and  _102
REMARK   44  A    between atoms: _101  and  _104
REMARK   45  A    between atoms: _104  and  _105
REMARK   46  A    between atoms: _105  and  _106
REMARK   47  A    between atoms: _106  and  _107
REMARK   48  A    between atoms: _107  and  _108
REMARK   49  A    between atoms: _112  and  _114
REMARK   50  A    between atoms: _114  and  _115
REMARK   51  A    between atoms: _114  and  _117
REMARK   52  A    between atoms: _117  and  _118
REMARK   53  A    between atoms: _123  and  _124
REMARK   54  A    between atoms: _126  and  _128
REMARK   55  A    between atoms: _128  and  _129
REMARK   56  A    between atoms: _128  and  _131
REMARK   57  A    between atoms: _135  and  _136
REMARK   58  A    between atoms: _141  and  _143
REMARK   59  A    between atoms: _143  and  _144
REMARK   60  A    between atoms: _146  and  _148
REMARK   61  A    between atoms: _148  and  _149
REMARK   62  A    between atoms: _148  and  _151
REMARK   63  A    between atoms: _151  and  _152
REMARK   64  A    between atoms: _155  and  _157
REMARK   65  A    between atoms: _157  and  _158
REMARK   66  A    between atoms: _157  and  _160
REMARK   67  A    between atoms: _160  and  _161
REMARK   68  A    between atoms: _164  and  _166
REMARK   69  A    between atoms: _166  and  _167
REMARK   70  A    between atoms: _166  and  _169
REMARK   71  A    between atoms: _169  and  _170
REMARK   72  A    between atoms: _175  and  _177
REMARK   73  A    between atoms: _177  and  _178
REMARK   74  A    between atoms: _177  and  _180
REMARK   75  A    between atoms: _180  and  _181
REMARK   76  A    between atoms: _184  and  _186
REMARK   77  A    between atoms: _186  and  _187
REMARK   78  A    between atoms: _186  and  _189
REMARK   79  A    between atoms: _192  and  _194
REMARK   80  A    between atoms: _194  and  _195
REMARK   81  A    between atoms: _194  and  _197
REMARK   82  A    between atoms: _197  and  _198
REMARK   83  A    between atoms: _198  and  _199
REMARK   84  A    between atoms: _204  and  _206
REMARK   85  A    between atoms: _206  and  _207
REMARK   86  A    between atoms: _206  and  _209
REMARK   87  A    between atoms: _209  and  _210
REMARK   88  A    between atoms: _213  and  _215
REMARK   89  A    between atoms: _215  and  _216
REMARK   90  A    between atoms: _215  and  _218
REMARK   91  A    between atoms: _218  and  _219
REMARK   92  A    between atoms: _219  and  _220
REMARK   93  A    between atoms: _220  and  _221
REMARK   94  A    between atoms: _230  and  _232
REMARK   95  A    between atoms: _232  and  _233
REMARK   96  A    between atoms: _232  and  _235
REMARK   97  A    between atoms: _235  and  _236
REMARK   98  A    between atoms: _240  and  _241
REMARK   99  A    between atoms: _246  and  _248
REMARK  100  A    between atoms: _248  and  _249
REMARK  101  A    between atoms: _248  and  _251
REMARK  102  A    between atoms: _251  and  _252
REMARK  103  A    between atoms: _252  and  _253
REMARK  104  A    between atoms: _255  and  _257
REMARK  105  A    between atoms: _257  and  _258
REMARK  106  A    between atoms: _261  and  _263
REMARK  107  A    between atoms: _263  and  _264
REMARK  108  A    between atoms: _263  and  _266
REMARK  109  A    between atoms: _266  and  _267
REMARK  110  A    between atoms: _267  and  _268
REMARK  111  A    between atoms: _268  and  _269
REMARK  112  A    between atoms: _269  and  _270
REMARK  113  A    between atoms: _274  and  _276
REMARK  114  A    between atoms: _276  and  _277
REMARK  115  A    between atoms: _276  and  _279
REMARK  116  A    between atoms: _279  and  _280
REMARK  117  A    between atoms: _283  and  _285
REMARK  118  A    between atoms: _285  and  _286
REMARK  119  A    between atoms: _285  and  _288
REMARK  120  A    between atoms: _288  and  _289
REMARK  121  A    between atoms: _291  and  _293
REMARK  122  A    between atoms: _293  and  _294
REMARK  123  A    between atoms: _293  and  _296
REMARK  124  A    between atoms: _296  and  _297
REMARK  125  A    between atoms: _297  and  _412
REMARK  126  A    between atoms: _298  and  _300
REMARK  127  A    between atoms: _300  and  _301
REMARK  128  A    between atoms: _300  and  _303
REMARK  129  A    between atoms: _303  and  _304
REMARK  130  A    between atoms: _304  and  _305
REMARK  131  A    between atoms: _305  and  _306
REMARK  132  A    between atoms: _306  and  _307
REMARK  133  A    between atoms: _311  and  _313
REMARK  134  A    between atoms: _313  and  _314
REMARK  135  A    between atoms: _316  and  _318
REMARK  136  A    between atoms: _318  and  _319
REMARK  137  A    between atoms: _318  and  _321
REMARK  138  A    between atoms: _321  and  _322
REMARK  139  A    between atoms: _325  and  _327
REMARK  140  A    between atoms: _327  and  _328
REMARK  141  A    between atoms: _327  and  _330
REMARK  142  A    between atoms: _330  and  _331
REMARK  143  A    between atoms: _333  and  _335
REMARK  144  A    between atoms: _335  and  _336
REMARK  145  A    between atoms: _338  and  _340
REMARK  146  A    between atoms: _340  and  _341
REMARK  147  A    between atoms: _343  and  _345
REMARK  148  A    between atoms: _345  and  _346
REMARK  149  A    between atoms: _345  and  _348
REMARK  150  A    between atoms: _348  and  _349
REMARK  151  A    between atoms: _352  and  _354
REMARK  152  A    between atoms: _354  and  _355
REMARK  153  A    between atoms: _354  and  _357
REMARK  154  A    between atoms: _360  and  _362
REMARK  155  A    between atoms: _362  and  _363
REMARK  156  A    between atoms: _362  and  _365
REMARK  157  A    between atoms: _365  and  _366
REMARK  158  A    between atoms: _368  and  _370
REMARK  159  A    between atoms: _370  and  _371
REMARK  160  A    between atoms: _370  and  _373
REMARK  161  A    between atoms: _373  and  _374
REMARK  162  A    between atoms: _384  and  _386
REMARK  163  A    between atoms: _386  and  _387
REMARK  164  A    between atoms: _389  and  _391
REMARK  165  A    between atoms: _391  and  _392
REMARK  166  A    between atoms: _391  and  _394
REMARK  167  A    between atoms: _394  and  _395
REMARK  168  A    between atoms: _395  and  _396
REMARK  169  A    between atoms: _401  and  _403
REMARK  170  A    between atoms: _403  and  _404
REMARK  171  A    between atoms: _406  and  _408
REMARK  172  A    between atoms: _408  and  _409
REMARK  173  A    between atoms: _408  and  _411
REMARK  174  A    between atoms: _411  and  _412
REMARK  175  A    between atoms: _413  and  _415
REMARK  176  A    between atoms: _415  and  _416
REMARK  177  A    between atoms: _419  and  _421
REMARK  178  A    between atoms: _421  and  _422
REMARK  179  A    between atoms: _421  and  _424
REMARK  180  A    between atoms: _424  and  _425
REMARK  181  A    between atoms: _428  and  _430
REMARK  182  A    between atoms: _430  and  _431
REMARK  183  A    between atoms: _430  and  _433
REMARK  184  A    between atoms: _433  and  _434
REMARK  185  A    between atoms: _439  and  _441
REMARK  186  A    between atoms: _441  and  _442
REMARK  187  A    between atoms: _441  and  _444
REMARK  188  A    between atoms: _444  and  _445
REMARK  189  A    between atoms: _451  and  _453
REMARK  190  A    between atoms: _453  and  _454
REMARK  191  A    between atoms: _456  and  _458
REMARK  192  A    between atoms: _458  and  _459
REMARK  193  A    between atoms: _458  and  _461
REMARK  194  A    between atoms: _464  and  _466
REMARK  195  A    between atoms: _466  and  _467
REMARK  196  A    between atoms: _466  and  _469
REMARK  197  A    between atoms: _469  and  _470
REMARK  198  A    between atoms: _475  and  _476
REMARK  199  A    between atoms: _478  and  _480
REMARK  200  A    between atoms: _480  and  _481
REMARK  201  A    between atoms: _480  and  _483
REMARK  202  A    between atoms: _483  and  _484
REMARK                            x       y       z     vdW  Elec       q    Type
REMARK                         _______ _______ _______ _____ _____    ______ ____
ROOT
ATOM      1  O   HOH     1       1.183  36.202  20.362  0.00  0.00    +0.000 OA
ENDROOT
TORSDOF 0
REMARK  Name = ../refined-set-2016/4ish/4ish_pocket.pdb
REMARK  202 active torsions:
REMARK  status: ('A' for Active; 'I' for Inactive)
REMARK    1  A    between atoms: _1  and  _5
REMARK    2  A    between atoms: _5  and  _6
REMARK    3  A    between atoms: _5  and  _8
REMARK    4  A    between atoms: _8  and  _9
REMARK    5  A    between atoms: _12  and  _14
REMARK    6  A    between atoms: _14  and  _15
REMARK    7  A    between atoms: _14  and  _17
REMARK    8  A    between atoms: _20  and  _22
REMARK    9  A    between atoms: _22  and  _23
REMARK   10  A    between atoms: _22  and  _25
REMARK   11  A    between atoms: _25  and  _26
REMARK   12  A    between atoms: _26  and  _27
REMARK   13  A    between atoms: _32  and  _34
REMARK   14  A    between atoms: _34  and  _35
REMARK   15  A    between atoms: _34  and  _37
REMARK   16  A    between atoms: _37  and  _38
REMARK   17  A    between atoms: _41  and  _43
REMARK   18  A    between atoms: _43  and  _44
REMARK   19  A    between atoms: _43  and  _46
REMARK   20  A    between atoms: _46  and  _47
REMARK   21  A    between atoms: _47  and  _77
REMARK   22  A    between atoms: _48  and  _50
REMARK   23  A    between atoms: _50  and  _51
REMARK   24  A    between atoms: _54  and  _56
REMARK   25  A    between atoms: _56  and  _57
REMARK   26  A    between atoms: _60  and  _62
REMARK   27  A    between atoms: _62  and  _63
REMARK   28  A    between atoms: _62  and  _65
REMARK   29  A    between atoms: _65  and  _66
REMARK   30  A    between atoms: _71  and  _73
REMARK   31  A    between atoms: _73  and  _74
REMARK   32  A    between atoms: _73  and  _76
REMARK   33  A    between atoms: _76  and  _77
REMARK   34  A    between atoms: _78  and  _80
REMARK   35  A    between atoms: _80  and  _81
REMARK   36  A    between atoms: _80  and  _83
REMARK   37  A    between atoms: _83  and  _84
REMARK   38  A    between atoms: _90  and  _92
REMARK   39  A    between atoms: _92  and  _93
REMARK   40  A    between atoms: _92  and  _95
REMARK   41  A    between atoms: _95  and  _96
REMARK   42  A    between atoms: _99  and  _101
REMARK   43  A    between atoms: _101  and  _102
REMARK   44  A    between atoms: _101  and  _104
REMARK   45  A    between atoms: _104  and  _105
REMARK   46  A    between atoms: _105  and  _106
REMARK   47  A    between atoms: _106  and  _107
REMARK   48  A    between atoms: _107  and  _108
REMARK   49  A    between atoms: _112  and  _114
REMARK   50  A    between atoms: _114  and  _115
REMARK   51  A    between atoms: _114  and  _117
REMARK   52  A    between atoms: _117  and  _118
REMARK   53  A    between atoms: _123  and  _124
REMARK   54  A    between atoms: _126  and  _128
REMARK   55  A    between atoms: _128  and  _129
REMARK   56  A    between atoms: _128  and  _131
REMARK   57  A    between atoms: _135  and  _136
REMARK   58  A    between atoms: _141  and  _143
REMARK   59  A    between atoms: _143  and  _144
REMARK   60  A    between atoms: _146  and  _148
REMARK   61  A    between atoms: _148  and  _149
REMARK   62  A    between atoms: _148  and  _151
REMARK   63  A    between atoms: _151  and  _152
REMARK   64  A    between atoms: _155  and  _157
REMARK   65  A    between atoms: _157  and  _158
REMARK   66  A    between atoms: _157  and  _160
REMARK   67  A    between atoms: _160  and  _161
REMARK   68  A    between atoms: _164  and  _166
REMARK   69  A    between atoms: _166  and  _167
REMARK   70  A    between atoms: _166  and  _169
REMARK   71  A    between atoms: _169  and  _170
REMARK   72  A    between atoms: _175  and  _177
REMARK   73  A    between atoms: _177  and  _178
REMARK   74  A    between atoms: _177  and  _180
REMARK   75  A    between atoms: _180  and  _181
REMARK   76  A    between atoms: _184  and  _186
REMARK   77  A    between atoms: _186  and  _187
REMARK   78  A    between atoms: _186  and  _189
REMARK   79  A    between atoms: _192  and  _194
REMARK   80  A    between atoms: _194  and  _195
REMARK   81  A    between atoms: _194  and  _197
REMARK   82  A    between atoms: _197  and  _198
REMARK   83  A    between atoms: _198  and  _199
REMARK   84  A    between atoms: _204  and  _206
REMARK   85  A    between atoms: _206  and  _207
REMARK   86  A    between atoms: _206  and  _209
REMARK   87  A    between atoms: _209  and  _210
REMARK   88  A    between atoms: _213  and  _215
REMARK   89  A    between atoms: _215  and  _216
REMARK   90  A    between atoms: _215  and  _218
REMARK   91  A    between atoms: _218  and  _219
REMARK   92  A    between atoms: _219  and  _220
REMARK   93  A    between atoms: _220  and  _221
REMARK   94  A    between atoms: _230  and  _232
REMARK   95  A    between atoms: _232  and  _233
REMARK   96  A    between atoms: _232  and  _235
REMARK   97  A    between atoms: _235  and  _236
REMARK   98  A    between atoms: _240  and  _241
REMARK   99  A    between atoms: _246  and  _248
REMARK  100  A    between atoms: _248  and  _249
REMARK  101  A    between atoms: _248  and  _251
REMARK  102  A    between atoms: _251  and  _252
REMARK  103  A    between atoms: _252  and  _253
REMARK  104  A    between atoms: _255  and  _257
REMARK  105  A    between atoms: _257  and  _258
REMARK  106  A    between atoms: _261  and  _263
REMARK  107  A    between atoms: _263  and  _264
REMARK  108  A    between atoms: _263  and  _266
REMARK  109  A    between atoms: _266  and  _267
REMARK  110  A    between atoms: _267  and  _268
REMARK  111  A    between atoms: _268  and  _269
REMARK  112  A    between atoms: _269  and  _270
REMARK  113  A    between atoms: _274  and  _276
REMARK  114  A    between atoms: _276  and  _277
REMARK  115  A    between atoms: _276  and  _279
REMARK  116  A    between atoms: _279  and  _280
REMARK  117  A    between atoms: _283  and  _285
REMARK  118  A    between atoms: _285  and  _286
REMARK  119  A    between atoms: _285  and  _288
REMARK  120  A    between atoms: _288  and  _289
REMARK  121  A    between atoms: _291  and  _293
REMARK  122  A    between atoms: _293  and  _294
REMARK  123  A    between atoms: _293  and  _296
REMARK  124  A    between atoms: _296  and  _297
REMARK  125  A    between atoms: _297  and  _412
REMARK  126  A    between atoms: _298  and  _300
REMARK  127  A    between atoms: _300  and  _301
REMARK  128  A    between atoms: _300  and  _303
REMARK  129  A    between atoms: _303  and  _304
REMARK  130  A    between atoms: _304  and  _305
REMARK  131  A    between atoms: _305  and  _306
REMARK  132  A    between atoms: _306  and  _307
REMARK  133  A    between atoms: _311  and  _313
REMARK  134  A    between atoms: _313  and  _314
REMARK  135  A    between atoms: _316  and  _318
REMARK  136  A    between atoms: _318  and  _319
REMARK  137  A    between atoms: _318  and  _321
REMARK  138  A    between atoms: _321  and  _322
REMARK  139  A    between atoms: _325  and  _327
REMARK  140  A    between atoms: _327  and  _328
REMARK  141  A    between atoms: _327  and  _330
REMARK  142  A    between atoms: _330  and  _331
REMARK  143  A    between atoms: _333  and  _335
REMARK  144  A    between atoms: _335  and  _336
REMARK  145  A    between atoms: _338  and  _340
REMARK  146  A    between atoms: _340  and  _341
REMARK  147  A    between atoms: _343  and  _345
REMARK  148  A    between atoms: _345  and  _346
REMARK  149  A    between atoms: _345  and  _348
REMARK  150  A    between atoms: _348  and  _349
REMARK  151  A    between atoms: _352  and  _354
REMARK  152  A    between atoms: _354  and  _355
REMARK  153  A    between atoms: _354  and  _357
REMARK  154  A    between atoms: _360  and  _362
REMARK  155  A    between atoms: _362  and  _363
REMARK  156  A    between atoms: _362  and  _365
REMARK  157  A    between atoms: _365  and  _366
REMARK  158  A    between atoms: _368  and  _370
REMARK  159  A    between atoms: _370  and  _371
REMARK  160  A    between atoms: _370  and  _373
REMARK  161  A    between atoms: _373  and  _374
REMARK  162  A    between atoms: _384  and  _386
REMARK  163  A    between atoms: _386  and  _387
REMARK  164  A    between atoms: _389  and  _391
REMARK  165  A    between atoms: _391  and  _392
REMARK  166  A    between atoms: _391  and  _394
REMARK  167  A    between atoms: _394  and  _395
REMARK  168  A    between atoms: _395  and  _396
REMARK  169  A    between atoms: _401  and  _403
REMARK  170  A    between atoms: _403  and  _404
REMARK  171  A    between atoms: _406  and  _408
REMARK  172  A    between atoms: _408  and  _409
REMARK  173  A    between atoms: _408  and  _411
REMARK  174  A    between atoms: _411  and  _412
REMARK  175  A    between atoms: _413  and  _415
REMARK  176  A    between atoms: _415  and  _416
REMARK  177  A    between atoms: _419  and  _421
REMARK  178  A    between atoms: _421  and  _422
REMARK  179  A    between atoms: _421  and  _424
REMARK  180  A    between atoms: _424  and  _425
REMARK  181  A    between atoms: _428  and  _430
REMARK  182  A    between atoms: _430  and  _431
REMARK  183  A    between atoms: _430  and  _433
REMARK  184  A    between atoms: _433  and  _434
REMARK  185  A    between atoms: _439  and  _441
REMARK  186  A    between atoms: _441  and  _442
REMARK  187  A    between atoms: _441  and  _444
REMARK  188  A    between atoms: _444  and  _445
REMARK  189  A    between atoms: _451  and  _453
REMARK  190  A    between atoms: _453  and  _454
REMARK  191  A    between atoms: _456  and  _458
REMARK  192  A    between atoms: _458  and  _459
REMARK  193  A    between atoms: _458  and  _461
REMARK  194  A    between atoms: _464  and  _466
REMARK  195  A    between atoms: _466  and  _467
REMARK  196  A    between atoms: _466  and  _469
REMARK  197  A    between atoms: _469  and  _470
REMARK  198  A    between atoms: _475  and  _476
REMARK  199  A    between atoms: _478  and  _480
REMARK  200  A    between atoms: _480  and  _481
REMARK  201  A    between atoms: _480  and  _483
REMARK  202  A    between atoms: _483  and  _484
REMARK                            x       y       z     vdW  Elec       q    Type
REMARK                         _______ _______ _______ _____ _____    ______ ____
ROOT
ATOM      1  O   HOH     1      12.214  29.503  34.947  0.00  0.00    +0.000 OA
ENDROOT
TORSDOF 0
REMARK  Name = ../refined-set-2016/4ish/4ish_pocket.pdb
REMARK  202 active torsions:
REMARK  status: ('A' for Active; 'I' for Inactive)
REMARK    1  A    between atoms: _1  and  _5
REMARK    2  A    between atoms: _5  and  _6
REMARK    3  A    between atoms: _5  and  _8
REMARK    4  A    between atoms: _8  and  _9
REMARK    5  A    between atoms: _12  and  _14
REMARK    6  A    between atoms: _14  and  _15
REMARK    7  A    between atoms: _14  and  _17
REMARK    8  A    between atoms: _20  and  _22
REMARK    9  A    between atoms: _22  and  _23
REMARK   10  A    between atoms: _22  and  _25
REMARK   11  A    between atoms: _25  and  _26
REMARK   12  A    between atoms: _26  and  _27
REMARK   13  A    between atoms: _32  and  _34
REMARK   14  A    between atoms: _34  and  _35
REMARK   15  A    between atoms: _34  and  _37
REMARK   16  A    between atoms: _37  and  _38
REMARK   17  A    between atoms: _41  and  _43
REMARK   18  A    between atoms: _43  and  _44
REMARK   19  A    between atoms: _43  and  _46
REMARK   20  A    between atoms: _46  and  _47
REMARK   21  A    between atoms: _47  and  _77
REMARK   22  A    between atoms: _48  and  _50
REMARK   23  A    between atoms: _50  and  _51
REMARK   24  A    between atoms: _54  and  _56
REMARK   25  A    between atoms: _56  and  _57
REMARK   26  A    between atoms: _60  and  _62
REMARK   27  A    between atoms: _62  and  _63
REMARK   28  A    between atoms: _62  and  _65
REMARK   29  A    between atoms: _65  and  _66
REMARK   30  A    between atoms: _71  and  _73
REMARK   31  A    between atoms: _73  and  _74
REMARK   32  A    between atoms: _73  and  _76
REMARK   33  A    between atoms: _76  and  _77
REMARK   34  A    between atoms: _78  and  _80
REMARK   35  A    between atoms: _80  and  _81
REMARK   36  A    between atoms: _80  and  _83
REMARK   37  A    between atoms: _83  and  _84
REMARK   38  A    between atoms: _90  and  _92
REMARK   39  A    between atoms: _92  and  _93
REMARK   40  A    between atoms: _92  and  _95
REMARK   41  A    between atoms: _95  and  _96
REMARK   42  A    between atoms: _99  and  _101
REMARK   43  A    between atoms: _101  and  _102
REMARK   44  A    between atoms: _101  and  _104
REMARK   45  A    between atoms: _104  and  _105
REMARK   46  A    between atoms: _105  and  _106
REMARK   47  A    between atoms: _106  and  _107
REMARK   48  A    between atoms: _107  and  _108
REMARK   49  A    between atoms: _112  and  _114
REMARK   50  A    between atoms: _114  and  _115
REMARK   51  A    between atoms: _114  and  _117
REMARK   52  A    between atoms: _117  and  _118
REMARK   53  A    between atoms: _123  and  _124
REMARK   54  A    between atoms: _126  and  _128
REMARK   55  A    between atoms: _128  and  _129
REMARK   56  A    between atoms: _128  and  _131
REMARK   57  A    between atoms: _135  and  _136
REMARK   58  A    between atoms: _141  and  _143
REMARK   59  A    between atoms: _143  and  _144
REMARK   60  A    between atoms: _146  and  _148
REMARK   61  A    between atoms: _148  and  _149
REMARK   62  A    between atoms: _148  and  _151
REMARK   63  A    between atoms: _151  and  _152
REMARK   64  A    between atoms: _155  and  _157
REMARK   65  A    between atoms: _157  and  _158
REMARK   66  A    between atoms: _157  and  _160
REMARK   67  A    between atoms: _160  and  _161
REMARK   68  A    between atoms: _164  and  _166
REMARK   69  A    between atoms: _166  and  _167
REMARK   70  A    between atoms: _166  and  _169
REMARK   71  A    between atoms: _169  and  _170
REMARK   72  A    between atoms: _175  and  _177
REMARK   73  A    between atoms: _177  and  _178
REMARK   74  A    between atoms: _177  and  _180
REMARK   75  A    between atoms: _180  and  _181
REMARK   76  A    between atoms: _184  and  _186
REMARK   77  A    between atoms: _186  and  _187
REMARK   78  A    between atoms: _186  and  _189
REMARK   79  A    between atoms: _192  and  _194
REMARK   80  A    between atoms: _194  and  _195
REMARK   81  A    between atoms: _194  and  _197
REMARK   82  A    between atoms: _197  and  _198
REMARK   83  A    between atoms: _198  and  _199
REMARK   84  A    between atoms: _204  and  _206
REMARK   85  A    between atoms: _206  and  _207
REMARK   86  A    between atoms: _206  and  _209
REMARK   87  A    between atoms: _209  and  _210
REMARK   88  A    between atoms: _213  and  _215
REMARK   89  A    between atoms: _215  and  _216
REMARK   90  A    between atoms: _215  and  _218
REMARK   91  A    between atoms: _218  and  _219
REMARK   92  A    between atoms: _219  and  _220
REMARK   93  A    between atoms: _220  and  _221
REMARK   94  A    between atoms: _230  and  _232
REMARK   95  A    between atoms: _232  and  _233
REMARK   96  A    between atoms: _232  and  _235
REMARK   97  A    between atoms: _235  and  _236
REMARK   98  A    between atoms: _240  and  _241
REMARK   99  A    between atoms: _246  and  _248
REMARK  100  A    between atoms: _248  and  _249
REMARK  101  A    between atoms: _248  and  _251
REMARK  102  A    between atoms: _251  and  _252
REMARK  103  A    between atoms: _252  and  _253
REMARK  104  A    between atoms: _255  and  _257
REMARK  105  A    between atoms: _257  and  _258
REMARK  106  A    between atoms: _261  and  _263
REMARK  107  A    between atoms: _263  and  _264
REMARK  108  A    between atoms: _263  and  _266
REMARK  109  A    between atoms: _266  and  _267
REMARK  110  A    between atoms: _267  and  _268
REMARK  111  A    between atoms: _268  and  _269
REMARK  112  A    between atoms: _269  and  _270
REMARK  113  A    between atoms: _274  and  _276
REMARK  114  A    between atoms: _276  and  _277
REMARK  115  A    between atoms: _276  and  _279
REMARK  116  A    between atoms: _279  and  _280
REMARK  117  A    between atoms: _283  and  _285
REMARK  118  A    between atoms: _285  and  _286
REMARK  119  A    between atoms: _285  and  _288
REMARK  120  A    between atoms: _288  and  _289
REMARK  121  A    between atoms: _291  and  _293
REMARK  122  A    between atoms: _293  and  _294
REMARK  123  A    between atoms: _293  and  _296
REMARK  124  A    between atoms: _296  and  _297
REMARK  125  A    between atoms: _297  and  _412
REMARK  126  A    between atoms: _298  and  _300
REMARK  127  A    between atoms: _300  and  _301
REMARK  128  A    between atoms: _300  and  _303
REMARK  129  A    between atoms: _303  and  _304
REMARK  130  A    between atoms: _304  and  _305
REMARK  131  A    between atoms: _305  and  _306
REMARK  132  A    between atoms: _306  and  _307
REMARK  133  A    between atoms: _311  and  _313
REMARK  134  A    between atoms: _313  and  _314
REMARK  135  A    between atoms: _316  and  _318
REMARK  136  A    between atoms: _318  and  _319
REMARK  137  A    between atoms: _318  and  _321
REMARK  138  A    between atoms: _321  and  _322
REMARK  139  A    between atoms: _325  and  _327
REMARK  140  A    between atoms: _327  and  _328
REMARK  141  A    between atoms: _327  and  _330
REMARK  142  A    between atoms: _330  and  _331
REMARK  143  A    between atoms: _333  and  _335
REMARK  144  A    between atoms: _335  and  _336
REMARK  145  A    between atoms: _338  and  _340
REMARK  146  A    between atoms: _340  and  _341
REMARK  147  A    between atoms: _343  and  _345
REMARK  148  A    between atoms: _345  and  _346
REMARK  149  A    between atoms: _345  and  _348
REMARK  150  A    between atoms: _348  and  _349
REMARK  151  A    between atoms: _352  and  _354
REMARK  152  A    between atoms: _354  and  _355
REMARK  153  A    between atoms: _354  and  _357
REMARK  154  A    between atoms: _360  and  _362
REMARK  155  A    between atoms: _362  and  _363
REMARK  156  A    between atoms: _362  and  _365
REMARK  157  A    between atoms: _365  and  _366
REMARK  158  A    between atoms: _368  and  _370
REMARK  159  A    between atoms: _370  and  _371
REMARK  160  A    between atoms: _370  and  _373
REMARK  161  A    between atoms: _373  and  _374
REMARK  162  A    between atoms: _384  and  _386
REMARK  163  A    between atoms: _386  and  _387
REMARK  164  A    between atoms: _389  and  _391
REMARK  165  A    between atoms: _391  and  _392
REMARK  166  A    between atoms: _391  and  _394
REMARK  167  A    between atoms: _394  and  _395
REMARK  168  A    between atoms: _395  and  _396
REMARK  169  A    between atoms: _401  and  _403
REMARK  170  A    between atoms: _403  and  _404
REMARK  171  A    between atoms: _406  and  _408
REMARK  172  A    between atoms: _408  and  _409
REMARK  173  A    between atoms: _408  and  _411
REMARK  174  A    between atoms: _411  and  _412
REMARK  175  A    between atoms: _413  and  _415
REMARK  176  A    between atoms: _415  and  _416
REMARK  177  A    between atoms: _419  and  _421
REMARK  178  A    between atoms: _421  and  _422
REMARK  179  A    between atoms: _421  and  _424
REMARK  180  A    between atoms: _424  and  _425
REMARK  181  A    between atoms: _428  and  _430
REMARK  182  A    between atoms: _430  and  _431
REMARK  183  A    between atoms: _430  and  _433
REMARK  184  A    between atoms: _433  and  _434
REMARK  185  A    between atoms: _439  and  _441
REMARK  186  A    between atoms: _441  and  _442
REMARK  187  A    between atoms: _441  and  _444
REMARK  188  A    between atoms: _444  and  _445
REMARK  189  A    between atoms: _451  and  _453
REMARK  190  A    between atoms: _453  and  _454
REMARK  191  A    between atoms: _456  and  _458
REMARK  192  A    between atoms: _458  and  _459
REMARK  193  A    between atoms: _458  and  _461
REMARK  194  A    between atoms: _464  and  _466
REMARK  195  A    between atoms: _466  and  _467
REMARK  196  A    between atoms: _466  and  _469
REMARK  197  A    between atoms: _469  and  _470
REMARK  198  A    between atoms: _475  and  _476
REMARK  199  A    between atoms: _478  and  _480
REMARK  200  A    between atoms: _480  and  _481
REMARK  201  A    between atoms: _480  and  _483
REMARK  202  A    between atoms: _483  and  _484
REMARK                            x       y       z     vdW  Elec       q    Type
REMARK                         _______ _______ _______ _____ _____    ______ ____
ROOT
ATOM      1  O   HOH     1       9.974  30.293  27.555  0.00  0.00    +0.000 OA
ENDROOT
TORSDOF 0
REMARK  Name = ../refined-set-2016/4ish/4ish_pocket.pdb
REMARK  202 active torsions:
REMARK  status: ('A' for Active; 'I' for Inactive)
REMARK    1  A    between atoms: _1  and  _5
REMARK    2  A    between atoms: _5  and  _6
REMARK    3  A    between atoms: _5  and  _8
REMARK    4  A    between atoms: _8  and  _9
REMARK    5  A    between atoms: _12  and  _14
REMARK    6  A    between atoms: _14  and  _15
REMARK    7  A    between atoms: _14  and  _17
REMARK    8  A    between atoms: _20  and  _22
REMARK    9  A    between atoms: _22  and  _23
REMARK   10  A    between atoms: _22  and  _25
REMARK   11  A    between atoms: _25  and  _26
REMARK   12  A    between atoms: _26  and  _27
REMARK   13  A    between atoms: _32  and  _34
REMARK   14  A    between atoms: _34  and  _35
REMARK   15  A    between atoms: _34  and  _37
REMARK   16  A    between atoms: _37  and  _38
REMARK   17  A    between atoms: _41  and  _43
REMARK   18  A    between atoms: _43  and  _44
REMARK   19  A    between atoms: _43  and  _46
REMARK   20  A    between atoms: _46  and  _47
REMARK   21  A    between atoms: _47  and  _77
REMARK   22  A    between atoms: _48  and  _50
REMARK   23  A    between atoms: _50  and  _51
REMARK   24  A    between atoms: _54  and  _56
REMARK   25  A    between atoms: _56  and  _57
REMARK   26  A    between atoms: _60  and  _62
REMARK   27  A    between atoms: _62  and  _63
REMARK   28  A    between atoms: _62  and  _65
REMARK   29  A    between atoms: _65  and  _66
REMARK   30  A    between atoms: _71  and  _73
REMARK   31  A    between atoms: _73  and  _74
REMARK   32  A    between atoms: _73  and  _76
REMARK   33  A    between atoms: _76  and  _77
REMARK   34  A    between atoms: _78  and  _80
REMARK   35  A    between atoms: _80  and  _81
REMARK   36  A    between atoms: _80  and  _83
REMARK   37  A    between atoms: _83  and  _84
REMARK   38  A    between atoms: _90  and  _92
REMARK   39  A    between atoms: _92  and  _93
REMARK   40  A    between atoms: _92  and  _95
REMARK   41  A    between atoms: _95  and  _96
REMARK   42  A    between atoms: _99  and  _101
REMARK   43  A    between atoms: _101  and  _102
REMARK   44  A    between atoms: _101  and  _104
REMARK   45  A    between atoms: _104  and  _105
REMARK   46  A    between atoms: _105  and  _106
REMARK   47  A    between atoms: _106  and  _107
REMARK   48  A    between atoms: _107  and  _108
REMARK   49  A    between atoms: _112  and  _114
REMARK   50  A    between atoms: _114  and  _115
REMARK   51  A    between atoms: _114  and  _117
REMARK   52  A    between atoms: _117  and  _118
REMARK   53  A    between atoms: _123  and  _124
REMARK   54  A    between atoms: _126  and  _128
REMARK   55  A    between atoms: _128  and  _129
REMARK   56  A    between atoms: _128  and  _131
REMARK   57  A    between atoms: _135  and  _136
REMARK   58  A    between atoms: _141  and  _143
REMARK   59  A    between atoms: _143  and  _144
REMARK   60  A    between atoms: _146  and  _148
REMARK   61  A    between atoms: _148  and  _149
REMARK   62  A    between atoms: _148  and  _151
REMARK   63  A    between atoms: _151  and  _152
REMARK   64  A    between atoms: _155  and  _157
REMARK   65  A    between atoms: _157  and  _158
REMARK   66  A    between atoms: _157  and  _160
REMARK   67  A    between atoms: _160  and  _161
REMARK   68  A    between atoms: _164  and  _166
REMARK   69  A    between atoms: _166  and  _167
REMARK   70  A    between atoms: _166  and  _169
REMARK   71  A    between atoms: _169  and  _170
REMARK   72  A    between atoms: _175  and  _177
REMARK   73  A    between atoms: _177  and  _178
REMARK   74  A    between atoms: _177  and  _180
REMARK   75  A    between atoms: _180  and  _181
REMARK   76  A    between atoms: _184  and  _186
REMARK   77  A    between atoms: _186  and  _187
REMARK   78  A    between atoms: _186  and  _189
REMARK   79  A    between atoms: _192  and  _194
REMARK   80  A    between atoms: _194  and  _195
REMARK   81  A    between atoms: _194  and  _197
REMARK   82  A    between atoms: _197  and  _198
REMARK   83  A    between atoms: _198  and  _199
REMARK   84  A    between atoms: _204  and  _206
REMARK   85  A    between atoms: _206  and  _207
REMARK   86  A    between atoms: _206  and  _209
REMARK   87  A    between atoms: _209  and  _210
REMARK   88  A    between atoms: _213  and  _215
REMARK   89  A    between atoms: _215  and  _216
REMARK   90  A    between atoms: _215  and  _218
REMARK   91  A    between atoms: _218  and  _219
REMARK   92  A    between atoms: _219  and  _220
REMARK   93  A    between atoms: _220  and  _221
REMARK   94  A    between atoms: _230  and  _232
REMARK   95  A    between atoms: _232  and  _233
REMARK   96  A    between atoms: _232  and  _235
REMARK   97  A    between atoms: _235  and  _236
REMARK   98  A    between atoms: _240  and  _241
REMARK   99  A    between atoms: _246  and  _248
REMARK  100  A    between atoms: _248  and  _249
REMARK  101  A    between atoms: _248  and  _251
REMARK  102  A    between atoms: _251  and  _252
REMARK  103  A    between atoms: _252  and  _253
REMARK  104  A    between atoms: _255  and  _257
REMARK  105  A    between atoms: _257  and  _258
REMARK  106  A    between atoms: _261  and  _263
REMARK  107  A    between atoms: _263  and  _264
REMARK  108  A    between atoms: _263  and  _266
REMARK  109  A    between atoms: _266  and  _267
REMARK  110  A    between atoms: _267  and  _268
REMARK  111  A    between atoms: _268  and  _269
REMARK  112  A    between atoms: _269  and  _270
REMARK  113  A    between atoms: _274  and  _276
REMARK  114  A    between atoms: _276  and  _277
REMARK  115  A    between atoms: _276  and  _279
REMARK  116  A    between atoms: _279  and  _280
REMARK  117  A    between atoms: _283  and  _285
REMARK  118  A    between atoms: _285  and  _286
REMARK  119  A    between atoms: _285  and  _288
REMARK  120  A    between atoms: _288  and  _289
REMARK  121  A    between atoms: _291  and  _293
REMARK  122  A    between atoms: _293  and  _294
REMARK  123  A    between atoms: _293  and  _296
REMARK  124  A    between atoms: _296  and  _297
REMARK  125  A    between atoms: _297  and  _412
REMARK  126  A    between atoms: _298  and  _300
REMARK  127  A    between atoms: _300  and  _301
REMARK  128  A    between atoms: _300  and  _303
REMARK  129  A    between atoms: _303  and  _304
REMARK  130  A    between atoms: _304  and  _305
REMARK  131  A    between atoms: _305  and  _306
REMARK  132  A    between atoms: _306  and  _307
REMARK  133  A    between atoms: _311  and  _313
REMARK  134  A    between atoms: _313  and  _314
REMARK  135  A    between atoms: _316  and  _318
REMARK  136  A    between atoms: _318  and  _319
REMARK  137  A    between atoms: _318  and  _321
REMARK  138  A    between atoms: _321  and  _322
REMARK  139  A    between atoms: _325  and  _327
REMARK  140  A    between atoms: _327  and  _328
REMARK  141  A    between atoms: _327  and  _330
REMARK  142  A    between atoms: _330  and  _331
REMARK  143  A    between atoms: _333  and  _335
REMARK  144  A    between atoms: _335  and  _336
REMARK  145  A    between atoms: _338  and  _340
REMARK  146  A    between atoms: _340  and  _341
REMARK  147  A    between atoms: _343  and  _345
REMARK  148  A    between atoms: _345  and  _346
REMARK  149  A    between atoms: _345  and  _348
REMARK  150  A    between atoms: _348  and  _349
REMARK  151  A    between atoms: _352  and  _354
REMARK  152  A    between atoms: _354  and  _355
REMARK  153  A    between atoms: _354  and  _357
REMARK  154  A    between atoms: _360  and  _362
REMARK  155  A    between atoms: _362  and  _363
REMARK  156  A    between atoms: _362  and  _365
REMARK  157  A    between atoms: _365  and  _366
REMARK  158  A    between atoms: _368  and  _370
REMARK  159  A    between atoms: _370  and  _371
REMARK  160  A    between atoms: _370  and  _373
REMARK  161  A    between atoms: _373  and  _374
REMARK  162  A    between atoms: _384  and  _386
REMARK  163  A    between atoms: _386  and  _387
REMARK  164  A    between atoms: _389  and  _391
REMARK  165  A    between atoms: _391  and  _392
REMARK  166  A    between atoms: _391  and  _394
REMARK  167  A    between atoms: _394  and  _395
REMARK  168  A    between atoms: _395  and  _396
REMARK  169  A    between atoms: _401  and  _403
REMARK  170  A    between atoms: _403  and  _404
REMARK  171  A    between atoms: _406  and  _408
REMARK  172  A    between atoms: _408  and  _409
REMARK  173  A    between atoms: _408  and  _411
REMARK  174  A    between atoms: _411  and  _412
REMARK  175  A    between atoms: _413  and  _415
REMARK  176  A    between atoms: _415  and  _416
REMARK  177  A    between atoms: _419  and  _421
REMARK  178  A    between atoms: _421  and  _422
REMARK  179  A    between atoms: _421  and  _424
REMARK  180  A    between atoms: _424  and  _425
REMARK  181  A    between atoms: _428  and  _430
REMARK  182  A    between atoms: _430  and  _431
REMARK  183  A    between atoms: _430  and  _433
REMARK  184  A    between atoms: _433  and  _434
REMARK  185  A    between atoms: _439  and  _441
REMARK  186  A    between atoms: _441  and  _442
REMARK  187  A    between atoms: _441  and  _444
REMARK  188  A    between atoms: _444  and  _445
REMARK  189  A    between atoms: _451  and  _453
REMARK  190  A    between atoms: _453  and  _454
REMARK  191  A    between atoms: _456  and  _458
REMARK  192  A    between atoms: _458  and  _459
REMARK  193  A    between atoms: _458  and  _461
REMARK  194  A    between atoms: _464  and  _466
REMARK  195  A    between atoms: _466  and  _467
REMARK  196  A    between atoms: _466  and  _469
REMARK  197  A    between atoms: _469  and  _470
REMARK  198  A    between atoms: _475  and  _476
REMARK  199  A    between atoms: _478  and  _480
REMARK  200  A    between atoms: _480  and  _481
REMARK  201  A    between atoms: _480  and  _483
REMARK  202  A    between atoms: _483  and  _484
REMARK                            x       y       z     vdW  Elec       q    Type
REMARK                         _______ _______ _______ _____ _____    ______ ____
ROOT
ATOM      1  O   HOH     1       9.355  37.991  20.916  0.00  0.00    +0.000 OA
ENDROOT
TORSDOF 0
REMARK  Name = ../refined-set-2016/4ish/4ish_pocket.pdb
REMARK  202 active torsions:
REMARK  status: ('A' for Active; 'I' for Inactive)
REMARK    1  A    between atoms: _1  and  _5
REMARK    2  A    between atoms: _5  and  _6
REMARK    3  A    between atoms: _5  and  _8
REMARK    4  A    between atoms: _8  and  _9
REMARK    5  A    between atoms: _12  and  _14
REMARK    6  A    between atoms: _14  and  _15
REMARK    7  A    between atoms: _14  and  _17
REMARK    8  A    between atoms: _20  and  _22
REMARK    9  A    between atoms: _22  and  _23
REMARK   10  A    between atoms: _22  and  _25
REMARK   11  A    between atoms: _25  and  _26
REMARK   12  A    between atoms: _26  and  _27
REMARK   13  A    between atoms: _32  and  _34
REMARK   14  A    between atoms: _34  and  _35
REMARK   15  A    between atoms: _34  and  _37
REMARK   16  A    between atoms: _37  and  _38
REMARK   17  A    between atoms: _41  and  _43
REMARK   18  A    between atoms: _43  and  _44
REMARK   19  A    between atoms: _43  and  _46
REMARK   20  A    between atoms: _46  and  _47
REMARK   21  A    between atoms: _47  and  _77
REMARK   22  A    between atoms: _48  and  _50
REMARK   23  A    between atoms: _50  and  _51
REMARK   24  A    between atoms: _54  and  _56
REMARK   25  A    between atoms: _56  and  _57
REMARK   26  A    between atoms: _60  and  _62
REMARK   27  A    between atoms: _62  and  _63
REMARK   28  A    between atoms: _62  and  _65
REMARK   29  A    between atoms: _65  and  _66
REMARK   30  A    between atoms: _71  and  _73
REMARK   31  A    between atoms: _73  and  _74
REMARK   32  A    between atoms: _73  and  _76
REMARK   33  A    between atoms: _76  and  _77
REMARK   34  A    between atoms: _78  and  _80
REMARK   35  A    between atoms: _80  and  _81
REMARK   36  A    between atoms: _80  and  _83
REMARK   37  A    between atoms: _83  and  _84
REMARK   38  A    between atoms: _90  and  _92
REMARK   39  A    between atoms: _92  and  _93
REMARK   40  A    between atoms: _92  and  _95
REMARK   41  A    between atoms: _95  and  _96
REMARK   42  A    between atoms: _99  and  _101
REMARK   43  A    between atoms: _101  and  _102
REMARK   44  A    between atoms: _101  and  _104
REMARK   45  A    between atoms: _104  and  _105
REMARK   46  A    between atoms: _105  and  _106
REMARK   47  A    between atoms: _106  and  _107
REMARK   48  A    between atoms: _107  and  _108
REMARK   49  A    between atoms: _112  and  _114
REMARK   50  A    between atoms: _114  and  _115
REMARK   51  A    between atoms: _114  and  _117
REMARK   52  A    between atoms: _117  and  _118
REMARK   53  A    between atoms: _123  and  _124
REMARK   54  A    between atoms: _126  and  _128
REMARK   55  A    between atoms: _128  and  _129
REMARK   56  A    between atoms: _128  and  _131
REMARK   57  A    between atoms: _135  and  _136
REMARK   58  A    between atoms: _141  and  _143
REMARK   59  A    between atoms: _143  and  _144
REMARK   60  A    between atoms: _146  and  _148
REMARK   61  A    between atoms: _148  and  _149
REMARK   62  A    between atoms: _148  and  _151
REMARK   63  A    between atoms: _151  and  _152
REMARK   64  A    between atoms: _155  and  _157
REMARK   65  A    between atoms: _157  and  _158
REMARK   66  A    between atoms: _157  and  _160
REMARK   67  A    between atoms: _160  and  _161
REMARK   68  A    between atoms: _164  and  _166
REMARK   69  A    between atoms: _166  and  _167
REMARK   70  A    between atoms: _166  and  _169
REMARK   71  A    between atoms: _169  and  _170
REMARK   72  A    between atoms: _175  and  _177
REMARK   73  A    between atoms: _177  and  _178
REMARK   74  A    between atoms: _177  and  _180
REMARK   75  A    between atoms: _180  and  _181
REMARK   76  A    between atoms: _184  and  _186
REMARK   77  A    between atoms: _186  and  _187
REMARK   78  A    between atoms: _186  and  _189
REMARK   79  A    between atoms: _192  and  _194
REMARK   80  A    between atoms: _194  and  _195
REMARK   81  A    between atoms: _194  and  _197
REMARK   82  A    between atoms: _197  and  _198
REMARK   83  A    between atoms: _198  and  _199
REMARK   84  A    between atoms: _204  and  _206
REMARK   85  A    between atoms: _206  and  _207
REMARK   86  A    between atoms: _206  and  _209
REMARK   87  A    between atoms: _209  and  _210
REMARK   88  A    between atoms: _213  and  _215
REMARK   89  A    between atoms: _215  and  _216
REMARK   90  A    between atoms: _215  and  _218
REMARK   91  A    between atoms: _218  and  _219
REMARK   92  A    between atoms: _219  and  _220
REMARK   93  A    between atoms: _220  and  _221
REMARK   94  A    between atoms: _230  and  _232
REMARK   95  A    between atoms: _232  and  _233
REMARK   96  A    between atoms: _232  and  _235
REMARK   97  A    between atoms: _235  and  _236
REMARK   98  A    between atoms: _240  and  _241
REMARK   99  A    between atoms: _246  and  _248
REMARK  100  A    between atoms: _248  and  _249
REMARK  101  A    between atoms: _248  and  _251
REMARK  102  A    between atoms: _251  and  _252
REMARK  103  A    between atoms: _252  and  _253
REMARK  104  A    between atoms: _255  and  _257
REMARK  105  A    between atoms: _257  and  _258
REMARK  106  A    between atoms: _261  and  _263
REMARK  107  A    between atoms: _263  and  _264
REMARK  108  A    between atoms: _263  and  _266
REMARK  109  A    between atoms: _266  and  _267
REMARK  110  A    between atoms: _267  and  _268
REMARK  111  A    between atoms: _268  and  _269
REMARK  112  A    between atoms: _269  and  _270
REMARK  113  A    between atoms: _274  and  _276
REMARK  114  A    between atoms: _276  and  _277
REMARK  115  A    between atoms: _276  and  _279
REMARK  116  A    between atoms: _279  and  _280
REMARK  117  A    between atoms: _283  and  _285
REMARK  118  A    between atoms: _285  and  _286
REMARK  119  A    between atoms: _285  and  _288
REMARK  120  A    between atoms: _288  and  _289
REMARK  121  A    between atoms: _291  and  _293
REMARK  122  A    between atoms: _293  and  _294
REMARK  123  A    between atoms: _293  and  _296
REMARK  124  A    between atoms: _296  and  _297
REMARK  125  A    between atoms: _297  and  _412
REMARK  126  A    between atoms: _298  and  _300
REMARK  127  A    between atoms: _300  and  _301
REMARK  128  A    between atoms: _300  and  _303
REMARK  129  A    between atoms: _303  and  _304
REMARK  130  A    between atoms: _304  and  _305
REMARK  131  A    between atoms: _305  and  _306
REMARK  132  A    between atoms: _306  and  _307
REMARK  133  A    between atoms: _311  and  _313
REMARK  134  A    between atoms: _313  and  _314
REMARK  135  A    between atoms: _316  and  _318
REMARK  136  A    between atoms: _318  and  _319
REMARK  137  A    between atoms: _318  and  _321
REMARK  138  A    between atoms: _321  and  _322
REMARK  139  A    between atoms: _325  and  _327
REMARK  140  A    between atoms: _327  and  _328
REMARK  141  A    between atoms: _327  and  _330
REMARK  142  A    between atoms: _330  and  _331
REMARK  143  A    between atoms: _333  and  _335
REMARK  144  A    between atoms: _335  and  _336
REMARK  145  A    between atoms: _338  and  _340
REMARK  146  A    between atoms: _340  and  _341
REMARK  147  A    between atoms: _343  and  _345
REMARK  148  A    between atoms: _345  and  _346
REMARK  149  A    between atoms: _345  and  _348
REMARK  150  A    between atoms: _348  and  _349
REMARK  151  A    between atoms: _352  and  _354
REMARK  152  A    between atoms: _354  and  _355
REMARK  153  A    between atoms: _354  and  _357
REMARK  154  A    between atoms: _360  and  _362
REMARK  155  A    between atoms: _362  and  _363
REMARK  156  A    between atoms: _362  and  _365
REMARK  157  A    between atoms: _365  and  _366
REMARK  158  A    between atoms: _368  and  _370
REMARK  159  A    between atoms: _370  and  _371
REMARK  160  A    between atoms: _370  and  _373
REMARK  161  A    between atoms: _373  and  _374
REMARK  162  A    between atoms: _384  and  _386
REMARK  163  A    between atoms: _386  and  _387
REMARK  164  A    between atoms: _389  and  _391
REMARK  165  A    between atoms: _391  and  _392
REMARK  166  A    between atoms: _391  and  _394
REMARK  167  A    between atoms: _394  and  _395
REMARK  168  A    between atoms: _395  and  _396
REMARK  169  A    between atoms: _401  and  _403
REMARK  170  A    between atoms: _403  and  _404
REMARK  171  A    between atoms: _406  and  _408
REMARK  172  A    between atoms: _408  and  _409
REMARK  173  A    between atoms: _408  and  _411
REMARK  174  A    between atoms: _411  and  _412
REMARK  175  A    between atoms: _413  and  _415
REMARK  176  A    between atoms: _415  and  _416
REMARK  177  A    between atoms: _419  and  _421
REMARK  178  A    between atoms: _421  and  _422
REMARK  179  A    between atoms: _421  and  _424
REMARK  180  A    between atoms: _424  and  _425
REMARK  181  A    between atoms: _428  and  _430
REMARK  182  A    between atoms: _430  and  _431
REMARK  183  A    between atoms: _430  and  _433
REMARK  184  A    between atoms: _433  and  _434
REMARK  185  A    between atoms: _439  and  _441
REMARK  186  A    between atoms: _441  and  _442
REMARK  187  A    between atoms: _441  and  _444
REMARK  188  A    between atoms: _444  and  _445
REMARK  189  A    between atoms: _451  and  _453
REMARK  190  A    between atoms: _453  and  _454
REMARK  191  A    between atoms: _456  and  _458
REMARK  192  A    between atoms: _458  and  _459
REMARK  193  A    between atoms: _458  and  _461
REMARK  194  A    between atoms: _464  and  _466
REMARK  195  A    between atoms: _466  and  _467
REMARK  196  A    between atoms: _466  and  _469
REMARK  197  A    between atoms: _469  and  _470
REMARK  198  A    between atoms: _475  and  _476
REMARK  199  A    between atoms: _478  and  _480
REMARK  200  A    between atoms: _480  and  _481
REMARK  201  A    between atoms: _480  and  _483
REMARK  202  A    between atoms: _483  and  _484
REMARK                            x       y       z     vdW  Elec       q    Type
REMARK                         _______ _______ _______ _____ _____    ______ ____
ROOT
ATOM      1  O   HOH     1      15.893  39.283  20.626  0.00  0.00    +0.000 OA
ENDROOT
TORSDOF 0
REMARK  Name = ../refined-set-2016/4ish/4ish_pocket.pdb
REMARK  202 active torsions:
REMARK  status: ('A' for Active; 'I' for Inactive)
REMARK    1  A    between atoms: _1  and  _5
REMARK    2  A    between atoms: _5  and  _6
REMARK    3  A    between atoms: _5  and  _8
REMARK    4  A    between atoms: _8  and  _9
REMARK    5  A    between atoms: _12  and  _14
REMARK    6  A    between atoms: _14  and  _15
REMARK    7  A    between atoms: _14  and  _17
REMARK    8  A    between atoms: _20  and  _22
REMARK    9  A    between atoms: _22  and  _23
REMARK   10  A    between atoms: _22  and  _25
REMARK   11  A    between atoms: _25  and  _26
REMARK   12  A    between atoms: _26  and  _27
REMARK   13  A    between atoms: _32  and  _34
REMARK   14  A    between atoms: _34  and  _35
REMARK   15  A    between atoms: _34  and  _37
REMARK   16  A    between atoms: _37  and  _38
REMARK   17  A    between atoms: _41  and  _43
REMARK   18  A    between atoms: _43  and  _44
REMARK   19  A    between atoms: _43  and  _46
REMARK   20  A    between atoms: _46  and  _47
REMARK   21  A    between atoms: _47  and  _77
REMARK   22  A    between atoms: _48  and  _50
REMARK   23  A    between atoms: _50  and  _51
REMARK   24  A    between atoms: _54  and  _56
REMARK   25  A    between atoms: _56  and  _57
REMARK   26  A    between atoms: _60  and  _62
REMARK   27  A    between atoms: _62  and  _63
REMARK   28  A    between atoms: _62  and  _65
REMARK   29  A    between atoms: _65  and  _66
REMARK   30  A    between atoms: _71  and  _73
REMARK   31  A    between atoms: _73  and  _74
REMARK   32  A    between atoms: _73  and  _76
REMARK   33  A    between atoms: _76  and  _77
REMARK   34  A    between atoms: _78  and  _80
REMARK   35  A    between atoms: _80  and  _81
REMARK   36  A    between atoms: _80  and  _83
REMARK   37  A    between atoms: _83  and  _84
REMARK   38  A    between atoms: _90  and  _92
REMARK   39  A    between atoms: _92  and  _93
REMARK   40  A    between atoms: _92  and  _95
REMARK   41  A    between atoms: _95  and  _96
REMARK   42  A    between atoms: _99  and  _101
REMARK   43  A    between atoms: _101  and  _102
REMARK   44  A    between atoms: _101  and  _104
REMARK   45  A    between atoms: _104  and  _105
REMARK   46  A    between atoms: _105  and  _106
REMARK   47  A    between atoms: _106  and  _107
REMARK   48  A    between atoms: _107  and  _108
REMARK   49  A    between atoms: _112  and  _114
REMARK   50  A    between atoms: _114  and  _115
REMARK   51  A    between atoms: _114  and  _117
REMARK   52  A    between atoms: _117  and  _118
REMARK   53  A    between atoms: _123  and  _124
REMARK   54  A    between atoms: _126  and  _128
REMARK   55  A    between atoms: _128  and  _129
REMARK   56  A    between atoms: _128  and  _131
REMARK   57  A    between atoms: _135  and  _136
REMARK   58  A    between atoms: _141  and  _143
REMARK   59  A    between atoms: _143  and  _144
REMARK   60  A    between atoms: _146  and  _148
REMARK   61  A    between atoms: _148  and  _149
REMARK   62  A    between atoms: _148  and  _151
REMARK   63  A    between atoms: _151  and  _152
REMARK   64  A    between atoms: _155  and  _157
REMARK   65  A    between atoms: _157  and  _158
REMARK   66  A    between atoms: _157  and  _160
REMARK   67  A    between atoms: _160  and  _161
REMARK   68  A    between atoms: _164  and  _166
REMARK   69  A    between atoms: _166  and  _167
REMARK   70  A    between atoms: _166  and  _169
REMARK   71  A    between atoms: _169  and  _170
REMARK   72  A    between atoms: _175  and  _177
REMARK   73  A    between atoms: _177  and  _178
REMARK   74  A    between atoms: _177  and  _180
REMARK   75  A    between atoms: _180  and  _181
REMARK   76  A    between atoms: _184  and  _186
REMARK   77  A    between atoms: _186  and  _187
REMARK   78  A    between atoms: _186  and  _189
REMARK   79  A    between atoms: _192  and  _194
REMARK   80  A    between atoms: _194  and  _195
REMARK   81  A    between atoms: _194  and  _197
REMARK   82  A    between atoms: _197  and  _198
REMARK   83  A    between atoms: _198  and  _199
REMARK   84  A    between atoms: _204  and  _206
REMARK   85  A    between atoms: _206  and  _207
REMARK   86  A    between atoms: _206  and  _209
REMARK   87  A    between atoms: _209  and  _210
REMARK   88  A    between atoms: _213  and  _215
REMARK   89  A    between atoms: _215  and  _216
REMARK   90  A    between atoms: _215  and  _218
REMARK   91  A    between atoms: _218  and  _219
REMARK   92  A    between atoms: _219  and  _220
REMARK   93  A    between atoms: _220  and  _221
REMARK   94  A    between atoms: _230  and  _232
REMARK   95  A    between atoms: _232  and  _233
REMARK   96  A    between atoms: _232  and  _235
REMARK   97  A    between atoms: _235  and  _236
REMARK   98  A    between atoms: _240  and  _241
REMARK   99  A    between atoms: _246  and  _248
REMARK  100  A    between atoms: _248  and  _249
REMARK  101  A    between atoms: _248  and  _251
REMARK  102  A    between atoms: _251  and  _252
REMARK  103  A    between atoms: _252  and  _253
REMARK  104  A    between atoms: _255  and  _257
REMARK  105  A    between atoms: _257  and  _258
REMARK  106  A    between atoms: _261  and  _263
REMARK  107  A    between atoms: _263  and  _264
REMARK  108  A    between atoms: _263  and  _266
REMARK  109  A    between atoms: _266  and  _267
REMARK  110  A    between atoms: _267  and  _268
REMARK  111  A    between atoms: _268  and  _269
REMARK  112  A    between atoms: _269  and  _270
REMARK  113  A    between atoms: _274  and  _276
REMARK  114  A    between atoms: _276  and  _277
REMARK  115  A    between atoms: _276  and  _279
REMARK  116  A    between atoms: _279  and  _280
REMARK  117  A    between atoms: _283  and  _285
REMARK  118  A    between atoms: _285  and  _286
REMARK  119  A    between atoms: _285  and  _288
REMARK  120  A    between atoms: _288  and  _289
REMARK  121  A    between atoms: _291  and  _293
REMARK  122  A    between atoms: _293  and  _294
REMARK  123  A    between atoms: _293  and  _296
REMARK  124  A    between atoms: _296  and  _297
REMARK  125  A    between atoms: _297  and  _412
REMARK  126  A    between atoms: _298  and  _300
REMARK  127  A    between atoms: _300  and  _301
REMARK  128  A    between atoms: _300  and  _303
REMARK  129  A    between atoms: _303  and  _304
REMARK  130  A    between atoms: _304  and  _305
REMARK  131  A    between atoms: _305  and  _306
REMARK  132  A    between atoms: _306  and  _307
REMARK  133  A    between atoms: _311  and  _313
REMARK  134  A    between atoms: _313  and  _314
REMARK  135  A    between atoms: _316  and  _318
REMARK  136  A    between atoms: _318  and  _319
REMARK  137  A    between atoms: _318  and  _321
REMARK  138  A    between atoms: _321  and  _322
REMARK  139  A    between atoms: _325  and  _327
REMARK  140  A    between atoms: _327  and  _328
REMARK  141  A    between atoms: _327  and  _330
REMARK  142  A    between atoms: _330  and  _331
REMARK  143  A    between atoms: _333  and  _335
REMARK  144  A    between atoms: _335  and  _336
REMARK  145  A    between atoms: _338  and  _340
REMARK  146  A    between atoms: _340  and  _341
REMARK  147  A    between atoms: _343  and  _345
REMARK  148  A    between atoms: _345  and  _346
REMARK  149  A    between atoms: _345  and  _348
REMARK  150  A    between atoms: _348  and  _349
REMARK  151  A    between atoms: _352  and  _354
REMARK  152  A    between atoms: _354  and  _355
REMARK  153  A    between atoms: _354  and  _357
REMARK  154  A    between atoms: _360  and  _362
REMARK  155  A    between atoms: _362  and  _363
REMARK  156  A    between atoms: _362  and  _365
REMARK  157  A    between atoms: _365  and  _366
REMARK  158  A    between atoms: _368  and  _370
REMARK  159  A    between atoms: _370  and  _371
REMARK  160  A    between atoms: _370  and  _373
REMARK  161  A    between atoms: _373  and  _374
REMARK  162  A    between atoms: _384  and  _386
REMARK  163  A    between atoms: _386  and  _387
REMARK  164  A    between atoms: _389  and  _391
REMARK  165  A    between atoms: _391  and  _392
REMARK  166  A    between atoms: _391  and  _394
REMARK  167  A    between atoms: _394  and  _395
REMARK  168  A    between atoms: _395  and  _396
REMARK  169  A    between atoms: _401  and  _403
REMARK  170  A    between atoms: _403  and  _404
REMARK  171  A    between atoms: _406  and  _408
REMARK  172  A    between atoms: _408  and  _409
REMARK  173  A    between atoms: _408  and  _411
REMARK  174  A    between atoms: _411  and  _412
REMARK  175  A    between atoms: _413  and  _415
REMARK  176  A    between atoms: _415  and  _416
REMARK  177  A    between atoms: _419  and  _421
REMARK  178  A    between atoms: _421  and  _422
REMARK  179  A    between atoms: _421  and  _424
REMARK  180  A    between atoms: _424  and  _425
REMARK  181  A    between atoms: _428  and  _430
REMARK  182  A    between atoms: _430  and  _431
REMARK  183  A    between atoms: _430  and  _433
REMARK  184  A    between atoms: _433  and  _434
REMARK  185  A    between atoms: _439  and  _441
REMARK  186  A    between atoms: _441  and  _442
REMARK  187  A    between atoms: _441  and  _444
REMARK  188  A    between atoms: _444  and  _445
REMARK  189  A    between atoms: _451  and  _453
REMARK  190  A    between atoms: _453  and  _454
REMARK  191  A    between atoms: _456  and  _458
REMARK  192  A    between atoms: _458  and  _459
REMARK  193  A    between atoms: _458  and  _461
REMARK  194  A    between atoms: _464  and  _466
REMARK  195  A    between atoms: _466  and  _467
REMARK  196  A    between atoms: _466  and  _469
REMARK  197  A    between atoms: _469  and  _470
REMARK  198  A    between atoms: _475  and  _476
REMARK  199  A    between atoms: _478  and  _480
REMARK  200  A    between atoms: _480  and  _481
REMARK  201  A    between atoms: _480  and  _483
REMARK  202  A    between atoms: _483  and  _484
REMARK                            x       y       z     vdW  Elec       q    Type
REMARK                         _______ _______ _______ _____ _____    ______ ____
ROOT
ATOM      1  O   HOH     1      15.749  44.890  18.943  0.00  0.00    +0.000 OA
ENDROOT
TORSDOF 0
REMARK  Name = ../refined-set-2016/4ish/4ish_pocket.pdb
REMARK  202 active torsions:
REMARK  status: ('A' for Active; 'I' for Inactive)
REMARK    1  A    between atoms: _1  and  _5
REMARK    2  A    between atoms: _5  and  _6
REMARK    3  A    between atoms: _5  and  _8
REMARK    4  A    between atoms: _8  and  _9
REMARK    5  A    between atoms: _12  and  _14
REMARK    6  A    between atoms: _14  and  _15
REMARK    7  A    between atoms: _14  and  _17
REMARK    8  A    between atoms: _20  and  _22
REMARK    9  A    between atoms: _22  and  _23
REMARK   10  A    between atoms: _22  and  _25
REMARK   11  A    between atoms: _25  and  _26
REMARK   12  A    between atoms: _26  and  _27
REMARK   13  A    between atoms: _32  and  _34
REMARK   14  A    between atoms: _34  and  _35
REMARK   15  A    between atoms: _34  and  _37
REMARK   16  A    between atoms: _37  and  _38
REMARK   17  A    between atoms: _41  and  _43
REMARK   18  A    between atoms: _43  and  _44
REMARK   19  A    between atoms: _43  and  _46
REMARK   20  A    between atoms: _46  and  _47
REMARK   21  A    between atoms: _47  and  _77
REMARK   22  A    between atoms: _48  and  _50
REMARK   23  A    between atoms: _50  and  _51
REMARK   24  A    between atoms: _54  and  _56
REMARK   25  A    between atoms: _56  and  _57
REMARK   26  A    between atoms: _60  and  _62
REMARK   27  A    between atoms: _62  and  _63
REMARK   28  A    between atoms: _62  and  _65
REMARK   29  A    between atoms: _65  and  _66
REMARK   30  A    between atoms: _71  and  _73
REMARK   31  A    between atoms: _73  and  _74
REMARK   32  A    between atoms: _73  and  _76
REMARK   33  A    between atoms: _76  and  _77
REMARK   34  A    between atoms: _78  and  _80
REMARK   35  A    between atoms: _80  and  _81
REMARK   36  A    between atoms: _80  and  _83
REMARK   37  A    between atoms: _83  and  _84
REMARK   38  A    between atoms: _90  and  _92
REMARK   39  A    between atoms: _92  and  _93
REMARK   40  A    between atoms: _92  and  _95
REMARK   41  A    between atoms: _95  and  _96
REMARK   42  A    between atoms: _99  and  _101
REMARK   43  A    between atoms: _101  and  _102
REMARK   44  A    between atoms: _101  and  _104
REMARK   45  A    between atoms: _104  and  _105
REMARK   46  A    between atoms: _105  and  _106
REMARK   47  A    between atoms: _106  and  _107
REMARK   48  A    between atoms: _107  and  _108
REMARK   49  A    between atoms: _112  and  _114
REMARK   50  A    between atoms: _114  and  _115
REMARK   51  A    between atoms: _114  and  _117
REMARK   52  A    between atoms: _117  and  _118
REMARK   53  A    between atoms: _123  and  _124
REMARK   54  A    between atoms: _126  and  _128
REMARK   55  A    between atoms: _128  and  _129
REMARK   56  A    between atoms: _128  and  _131
REMARK   57  A    between atoms: _135  and  _136
REMARK   58  A    between atoms: _141  and  _143
REMARK   59  A    between atoms: _143  and  _144
REMARK   60  A    between atoms: _146  and  _148
REMARK   61  A    between atoms: _148  and  _149
REMARK   62  A    between atoms: _148  and  _151
REMARK   63  A    between atoms: _151  and  _152
REMARK   64  A    between atoms: _155  and  _157
REMARK   65  A    between atoms: _157  and  _158
REMARK   66  A    between atoms: _157  and  _160
REMARK   67  A    between atoms: _160  and  _161
REMARK   68  A    between atoms: _164  and  _166
REMARK   69  A    between atoms: _166  and  _167
REMARK   70  A    between atoms: _166  and  _169
REMARK   71  A    between atoms: _169  and  _170
REMARK   72  A    between atoms: _175  and  _177
REMARK   73  A    between atoms: _177  and  _178
REMARK   74  A    between atoms: _177  and  _180
REMARK   75  A    between atoms: _180  and  _181
REMARK   76  A    between atoms: _184  and  _186
REMARK   77  A    between atoms: _186  and  _187
REMARK   78  A    between atoms: _186  and  _189
REMARK   79  A    between atoms: _192  and  _194
REMARK   80  A    between atoms: _194  and  _195
REMARK   81  A    between atoms: _194  and  _197
REMARK   82  A    between atoms: _197  and  _198
REMARK   83  A    between atoms: _198  and  _199
REMARK   84  A    between atoms: _204  and  _206
REMARK   85  A    between atoms: _206  and  _207
REMARK   86  A    between atoms: _206  and  _209
REMARK   87  A    between atoms: _209  and  _210
REMARK   88  A    between atoms: _213  and  _215
REMARK   89  A    between atoms: _215  and  _216
REMARK   90  A    between atoms: _215  and  _218
REMARK   91  A    between atoms: _218  and  _219
REMARK   92  A    between atoms: _219  and  _220
REMARK   93  A    between atoms: _220  and  _221
REMARK   94  A    between atoms: _230  and  _232
REMARK   95  A    between atoms: _232  and  _233
REMARK   96  A    between atoms: _232  and  _235
REMARK   97  A    between atoms: _235  and  _236
REMARK   98  A    between atoms: _240  and  _241
REMARK   99  A    between atoms: _246  and  _248
REMARK  100  A    between atoms: _248  and  _249
REMARK  101  A    between atoms: _248  and  _251
REMARK  102  A    between atoms: _251  and  _252
REMARK  103  A    between atoms: _252  and  _253
REMARK  104  A    between atoms: _255  and  _257
REMARK  105  A    between atoms: _257  and  _258
REMARK  106  A    between atoms: _261  and  _263
REMARK  107  A    between atoms: _263  and  _264
REMARK  108  A    between atoms: _263  and  _266
REMARK  109  A    between atoms: _266  and  _267
REMARK  110  A    between atoms: _267  and  _268
REMARK  111  A    between atoms: _268  and  _269
REMARK  112  A    between atoms: _269  and  _270
REMARK  113  A    between atoms: _274  and  _276
REMARK  114  A    between atoms: _276  and  _277
REMARK  115  A    between atoms: _276  and  _279
REMARK  116  A    between atoms: _279  and  _280
REMARK  117  A    between atoms: _283  and  _285
REMARK  118  A    between atoms: _285  and  _286
REMARK  119  A    between atoms: _285  and  _288
REMARK  120  A    between atoms: _288  and  _289
REMARK  121  A    between atoms: _291  and  _293
REMARK  122  A    between atoms: _293  and  _294
REMARK  123  A    between atoms: _293  and  _296
REMARK  124  A    between atoms: _296  and  _297
REMARK  125  A    between atoms: _297  and  _412
REMARK  126  A    between atoms: _298  and  _300
REMARK  127  A    between atoms: _300  and  _301
REMARK  128  A    between atoms: _300  and  _303
REMARK  129  A    between atoms: _303  and  _304
REMARK  130  A    between atoms: _304  and  _305
REMARK  131  A    between atoms: _305  and  _306
REMARK  132  A    between atoms: _306  and  _307
REMARK  133  A    between atoms: _311  and  _313
REMARK  134  A    between atoms: _313  and  _314
REMARK  135  A    between atoms: _316  and  _318
REMARK  136  A    between atoms: _318  and  _319
REMARK  137  A    between atoms: _318  and  _321
REMARK  138  A    between atoms: _321  and  _322
REMARK  139  A    between atoms: _325  and  _327
REMARK  140  A    between atoms: _327  and  _328
REMARK  141  A    between atoms: _327  and  _330
REMARK  142  A    between atoms: _330  and  _331
REMARK  143  A    between atoms: _333  and  _335
REMARK  144  A    between atoms: _335  and  _336
REMARK  145  A    between atoms: _338  and  _340
REMARK  146  A    between atoms: _340  and  _341
REMARK  147  A    between atoms: _343  and  _345
REMARK  148  A    between atoms: _345  and  _346
REMARK  149  A    between atoms: _345  and  _348
REMARK  150  A    between atoms: _348  and  _349
REMARK  151  A    between atoms: _352  and  _354
REMARK  152  A    between atoms: _354  and  _355
REMARK  153  A    between atoms: _354  and  _357
REMARK  154  A    between atoms: _360  and  _362
REMARK  155  A    between atoms: _362  and  _363
REMARK  156  A    between atoms: _362  and  _365
REMARK  157  A    between atoms: _365  and  _366
REMARK  158  A    between atoms: _368  and  _370
REMARK  159  A    between atoms: _370  and  _371
REMARK  160  A    between atoms: _370  and  _373
REMARK  161  A    between atoms: _373  and  _374
REMARK  162  A    between atoms: _384  and  _386
REMARK  163  A    between atoms: _386  and  _387
REMARK  164  A    between atoms: _389  and  _391
REMARK  165  A    between atoms: _391  and  _392
REMARK  166  A    between atoms: _391  and  _394
REMARK  167  A    between atoms: _394  and  _395
REMARK  168  A    between atoms: _395  and  _396
REMARK  169  A    between atoms: _401  and  _403
REMARK  170  A    between atoms: _403  and  _404
REMARK  171  A    between atoms: _406  and  _408
REMARK  172  A    between atoms: _408  and  _409
REMARK  173  A    between atoms: _408  and  _411
REMARK  174  A    between atoms: _411  and  _412
REMARK  175  A    between atoms: _413  and  _415
REMARK  176  A    between atoms: _415  and  _416
REMARK  177  A    between atoms: _419  and  _421
REMARK  178  A    between atoms: _421  and  _422
REMARK  179  A    between atoms: _421  and  _424
REMARK  180  A    between atoms: _424  and  _425
REMARK  181  A    between atoms: _428  and  _430
REMARK  182  A    between atoms: _430  and  _431
REMARK  183  A    between atoms: _430  and  _433
REMARK  184  A    between atoms: _433  and  _434
REMARK  185  A    between atoms: _439  and  _441
REMARK  186  A    between atoms: _441  and  _442
REMARK  187  A    between atoms: _441  and  _444
REMARK  188  A    between atoms: _444  and  _445
REMARK  189  A    between atoms: _451  and  _453
REMARK  190  A    between atoms: _453  and  _454
REMARK  191  A    between atoms: _456  and  _458
REMARK  192  A    between atoms: _458  and  _459
REMARK  193  A    between atoms: _458  and  _461
REMARK  194  A    between atoms: _464  and  _466
REMARK  195  A    between atoms: _466  and  _467
REMARK  196  A    between atoms: _466  and  _469
REMARK  197  A    between atoms: _469  and  _470
REMARK  198  A    between atoms: _475  and  _476
REMARK  199  A    between atoms: _478  and  _480
REMARK  200  A    between atoms: _480  and  _481
REMARK  201  A    between atoms: _480  and  _483
REMARK  202  A    between atoms: _483  and  _484
REMARK                            x       y       z     vdW  Elec       q    Type
REMARK                         _______ _______ _______ _____ _____    ______ ____
ROOT
ATOM      1  O   HOH     1       2.985  28.629  23.603  0.00  0.00    +0.000 OA
ENDROOT
TORSDOF 0
REMARK  Name = ../refined-set-2016/4ish/4ish_pocket.pdb
REMARK  202 active torsions:
REMARK  status: ('A' for Active; 'I' for Inactive)
REMARK    1  A    between atoms: _1  and  _5
REMARK    2  A    between atoms: _5  and  _6
REMARK    3  A    between atoms: _5  and  _8
REMARK    4  A    between atoms: _8  and  _9
REMARK    5  A    between atoms: _12  and  _14
REMARK    6  A    between atoms: _14  and  _15
REMARK    7  A    between atoms: _14  and  _17
REMARK    8  A    between atoms: _20  and  _22
REMARK    9  A    between atoms: _22  and  _23
REMARK   10  A    between atoms: _22  and  _25
REMARK   11  A    between atoms: _25  and  _26
REMARK   12  A    between atoms: _26  and  _27
REMARK   13  A    between atoms: _32  and  _34
REMARK   14  A    between atoms: _34  and  _35
REMARK   15  A    between atoms: _34  and  _37
REMARK   16  A    between atoms: _37  and  _38
REMARK   17  A    between atoms: _41  and  _43
REMARK   18  A    between atoms: _43  and  _44
REMARK   19  A    between atoms: _43  and  _46
REMARK   20  A    between atoms: _46  and  _47
REMARK   21  A    between atoms: _47  and  _77
REMARK   22  A    between atoms: _48  and  _50
REMARK   23  A    between atoms: _50  and  _51
REMARK   24  A    between atoms: _54  and  _56
REMARK   25  A    between atoms: _56  and  _57
REMARK   26  A    between atoms: _60  and  _62
REMARK   27  A    between atoms: _62  and  _63
REMARK   28  A    between atoms: _62  and  _65
REMARK   29  A    between atoms: _65  and  _66
REMARK   30  A    between atoms: _71  and  _73
REMARK   31  A    between atoms: _73  and  _74
REMARK   32  A    between atoms: _73  and  _76
REMARK   33  A    between atoms: _76  and  _77
REMARK   34  A    between atoms: _78  and  _80
REMARK   35  A    between atoms: _80  and  _81
REMARK   36  A    between atoms: _80  and  _83
REMARK   37  A    between atoms: _83  and  _84
REMARK   38  A    between atoms: _90  and  _92
REMARK   39  A    between atoms: _92  and  _93
REMARK   40  A    between atoms: _92  and  _95
REMARK   41  A    between atoms: _95  and  _96
REMARK   42  A    between atoms: _99  and  _101
REMARK   43  A    between atoms: _101  and  _102
REMARK   44  A    between atoms: _101  and  _104
REMARK   45  A    between atoms: _104  and  _105
REMARK   46  A    between atoms: _105  and  _106
REMARK   47  A    between atoms: _106  and  _107
REMARK   48  A    between atoms: _107  and  _108
REMARK   49  A    between atoms: _112  and  _114
REMARK   50  A    between atoms: _114  and  _115
REMARK   51  A    between atoms: _114  and  _117
REMARK   52  A    between atoms: _117  and  _118
REMARK   53  A    between atoms: _123  and  _124
REMARK   54  A    between atoms: _126  and  _128
REMARK   55  A    between atoms: _128  and  _129
REMARK   56  A    between atoms: _128  and  _131
REMARK   57  A    between atoms: _135  and  _136
REMARK   58  A    between atoms: _141  and  _143
REMARK   59  A    between atoms: _143  and  _144
REMARK   60  A    between atoms: _146  and  _148
REMARK   61  A    between atoms: _148  and  _149
REMARK   62  A    between atoms: _148  and  _151
REMARK   63  A    between atoms: _151  and  _152
REMARK   64  A    between atoms: _155  and  _157
REMARK   65  A    between atoms: _157  and  _158
REMARK   66  A    between atoms: _157  and  _160
REMARK   67  A    between atoms: _160  and  _161
REMARK   68  A    between atoms: _164  and  _166
REMARK   69  A    between atoms: _166  and  _167
REMARK   70  A    between atoms: _166  and  _169
REMARK   71  A    between atoms: _169  and  _170
REMARK   72  A    between atoms: _175  and  _177
REMARK   73  A    between atoms: _177  and  _178
REMARK   74  A    between atoms: _177  and  _180
REMARK   75  A    between atoms: _180  and  _181
REMARK   76  A    between atoms: _184  and  _186
REMARK   77  A    between atoms: _186  and  _187
REMARK   78  A    between atoms: _186  and  _189
REMARK   79  A    between atoms: _192  and  _194
REMARK   80  A    between atoms: _194  and  _195
REMARK   81  A    between atoms: _194  and  _197
REMARK   82  A    between atoms: _197  and  _198
REMARK   83  A    between atoms: _198  and  _199
REMARK   84  A    between atoms: _204  and  _206
REMARK   85  A    between atoms: _206  and  _207
REMARK   86  A    between atoms: _206  and  _209
REMARK   87  A    between atoms: _209  and  _210
REMARK   88  A    between atoms: _213  and  _215
REMARK   89  A    between atoms: _215  and  _216
REMARK   90  A    between atoms: _215  and  _218
REMARK   91  A    between atoms: _218  and  _219
REMARK   92  A    between atoms: _219  and  _220
REMARK   93  A    between atoms: _220  and  _221
REMARK   94  A    between atoms: _230  and  _232
REMARK   95  A    between atoms: _232  and  _233
REMARK   96  A    between atoms: _232  and  _235
REMARK   97  A    between atoms: _235  and  _236
REMARK   98  A    between atoms: _240  and  _241
REMARK   99  A    between atoms: _246  and  _248
REMARK  100  A    between atoms: _248  and  _249
REMARK  101  A    between atoms: _248  and  _251
REMARK  102  A    between atoms: _251  and  _252
REMARK  103  A    between atoms: _252  and  _253
REMARK  104  A    between atoms: _255  and  _257
REMARK  105  A    between atoms: _257  and  _258
REMARK  106  A    between atoms: _261  and  _263
REMARK  107  A    between atoms: _263  and  _264
REMARK  108  A    between atoms: _263  and  _266
REMARK  109  A    between atoms: _266  and  _267
REMARK  110  A    between atoms: _267  and  _268
REMARK  111  A    between atoms: _268  and  _269
REMARK  112  A    between atoms: _269  and  _270
REMARK  113  A    between atoms: _274  and  _276
REMARK  114  A    between atoms: _276  and  _277
REMARK  115  A    between atoms: _276  and  _279
REMARK  116  A    between atoms: _279  and  _280
REMARK  117  A    between atoms: _283  and  _285
REMARK  118  A    between atoms: _285  and  _286
REMARK  119  A    between atoms: _285  and  _288
REMARK  120  A    between atoms: _288  and  _289
REMARK  121  A    between atoms: _291  and  _293
REMARK  122  A    between atoms: _293  and  _294
REMARK  123  A    between atoms: _293  and  _296
REMARK  124  A    between atoms: _296  and  _297
REMARK  125  A    between atoms: _297  and  _412
REMARK  126  A    between atoms: _298  and  _300
REMARK  127  A    between atoms: _300  and  _301
REMARK  128  A    between atoms: _300  and  _303
REMARK  129  A    between atoms: _303  and  _304
REMARK  130  A    between atoms: _304  and  _305
REMARK  131  A    between atoms: _305  and  _306
REMARK  132  A    between atoms: _306  and  _307
REMARK  133  A    between atoms: _311  and  _313
REMARK  134  A    between atoms: _313  and  _314
REMARK  135  A    between atoms: _316  and  _318
REMARK  136  A    between atoms: _318  and  _319
REMARK  137  A    between atoms: _318  and  _321
REMARK  138  A    between atoms: _321  and  _322
REMARK  139  A    between atoms: _325  and  _327
REMARK  140  A    between atoms: _327  and  _328
REMARK  141  A    between atoms: _327  and  _330
REMARK  142  A    between atoms: _330  and  _331
REMARK  143  A    between atoms: _333  and  _335
REMARK  144  A    between atoms: _335  and  _336
REMARK  145  A    between atoms: _338  and  _340
REMARK  146  A    between atoms: _340  and  _341
REMARK  147  A    between atoms: _343  and  _345
REMARK  148  A    between atoms: _345  and  _346
REMARK  149  A    between atoms: _345  and  _348
REMARK  150  A    between atoms: _348  and  _349
REMARK  151  A    between atoms: _352  and  _354
REMARK  152  A    between atoms: _354  and  _355
REMARK  153  A    between atoms: _354  and  _357
REMARK  154  A    between atoms: _360  and  _362
REMARK  155  A    between atoms: _362  and  _363
REMARK  156  A    between atoms: _362  and  _365
REMARK  157  A    between atoms: _365  and  _366
REMARK  158  A    between atoms: _368  and  _370
REMARK  159  A    between atoms: _370  and  _371
REMARK  160  A    between atoms: _370  and  _373
REMARK  161  A    between atoms: _373  and  _374
REMARK  162  A    between atoms: _384  and  _386
REMARK  163  A    between atoms: _386  and  _387
REMARK  164  A    between atoms: _389  and  _391
REMARK  165  A    between atoms: _391  and  _392
REMARK  166  A    between atoms: _391  and  _394
REMARK  167  A    between atoms: _394  and  _395
REMARK  168  A    between atoms: _395  and  _396
REMARK  169  A    between atoms: _401  and  _403
REMARK  170  A    between atoms: _403  and  _404
REMARK  171  A    between atoms: _406  and  _408
REMARK  172  A    between atoms: _408  and  _409
REMARK  173  A    between atoms: _408  and  _411
REMARK  174  A    between atoms: _411  and  _412
REMARK  175  A    between atoms: _413  and  _415
REMARK  176  A    between atoms: _415  and  _416
REMARK  177  A    between atoms: _419  and  _421
REMARK  178  A    between atoms: _421  and  _422
REMARK  179  A    between atoms: _421  and  _424
REMARK  180  A    between atoms: _424  and  _425
REMARK  181  A    between atoms: _428  and  _430
REMARK  182  A    between atoms: _430  and  _431
REMARK  183  A    between atoms: _430  and  _433
REMARK  184  A    between atoms: _433  and  _434
REMARK  185  A    between atoms: _439  and  _441
REMARK  186  A    between atoms: _441  and  _442
REMARK  187  A    between atoms: _441  and  _444
REMARK  188  A    between atoms: _444  and  _445
REMARK  189  A    between atoms: _451  and  _453
REMARK  190  A    between atoms: _453  and  _454
REMARK  191  A    between atoms: _456  and  _458
REMARK  192  A    between atoms: _458  and  _459
REMARK  193  A    between atoms: _458  and  _461
REMARK  194  A    between atoms: _464  and  _466
REMARK  195  A    between atoms: _466  and  _467
REMARK  196  A    between atoms: _466  and  _469
REMARK  197  A    between atoms: _469  and  _470
REMARK  198  A    between atoms: _475  and  _476
REMARK  199  A    between atoms: _478  and  _480
REMARK  200  A    between atoms: _480  and  _481
REMARK  201  A    between atoms: _480  and  _483
REMARK  202  A    between atoms: _483  and  _484
REMARK                            x       y       z     vdW  Elec       q    Type
REMARK                         _______ _______ _______ _____ _____    ______ ____
ROOT
ATOM      1  O   HOH     1      -3.221  33.541  25.155  0.00  0.00    +0.000 OA
ENDROOT
TORSDOF 0
REMARK  Name = ../refined-set-2016/4ish/4ish_pocket.pdb
REMARK  202 active torsions:
REMARK  status: ('A' for Active; 'I' for Inactive)
REMARK    1  A    between atoms: _1  and  _5
REMARK    2  A    between atoms: _5  and  _6
REMARK    3  A    between atoms: _5  and  _8
REMARK    4  A    between atoms: _8  and  _9
REMARK    5  A    between atoms: _12  and  _14
REMARK    6  A    between atoms: _14  and  _15
REMARK    7  A    between atoms: _14  and  _17
REMARK    8  A    between atoms: _20  and  _22
REMARK    9  A    between atoms: _22  and  _23
REMARK   10  A    between atoms: _22  and  _25
REMARK   11  A    between atoms: _25  and  _26
REMARK   12  A    between atoms: _26  and  _27
REMARK   13  A    between atoms: _32  and  _34
REMARK   14  A    between atoms: _34  and  _35
REMARK   15  A    between atoms: _34  and  _37
REMARK   16  A    between atoms: _37  and  _38
REMARK   17  A    between atoms: _41  and  _43
REMARK   18  A    between atoms: _43  and  _44
REMARK   19  A    between atoms: _43  and  _46
REMARK   20  A    between atoms: _46  and  _47
REMARK   21  A    between atoms: _47  and  _77
REMARK   22  A    between atoms: _48  and  _50
REMARK   23  A    between atoms: _50  and  _51
REMARK   24  A    between atoms: _54  and  _56
REMARK   25  A    between atoms: _56  and  _57
REMARK   26  A    between atoms: _60  and  _62
REMARK   27  A    between atoms: _62  and  _63
REMARK   28  A    between atoms: _62  and  _65
REMARK   29  A    between atoms: _65  and  _66
REMARK   30  A    between atoms: _71  and  _73
REMARK   31  A    between atoms: _73  and  _74
REMARK   32  A    between atoms: _73  and  _76
REMARK   33  A    between atoms: _76  and  _77
REMARK   34  A    between atoms: _78  and  _80
REMARK   35  A    between atoms: _80  and  _81
REMARK   36  A    between atoms: _80  and  _83
REMARK   37  A    between atoms: _83  and  _84
REMARK   38  A    between atoms: _90  and  _92
REMARK   39  A    between atoms: _92  and  _93
REMARK   40  A    between atoms: _92  and  _95
REMARK   41  A    between atoms: _95  and  _96
REMARK   42  A    between atoms: _99  and  _101
REMARK   43  A    between atoms: _101  and  _102
REMARK   44  A    between atoms: _101  and  _104
REMARK   45  A    between atoms: _104  and  _105
REMARK   46  A    between atoms: _105  and  _106
REMARK   47  A    between atoms: _106  and  _107
REMARK   48  A    between atoms: _107  and  _108
REMARK   49  A    between atoms: _112  and  _114
REMARK   50  A    between atoms: _114  and  _115
REMARK   51  A    between atoms: _114  and  _117
REMARK   52  A    between atoms: _117  and  _118
REMARK   53  A    between atoms: _123  and  _124
REMARK   54  A    between atoms: _126  and  _128
REMARK   55  A    between atoms: _128  and  _129
REMARK   56  A    between atoms: _128  and  _131
REMARK   57  A    between atoms: _135  and  _136
REMARK   58  A    between atoms: _141  and  _143
REMARK   59  A    between atoms: _143  and  _144
REMARK   60  A    between atoms: _146  and  _148
REMARK   61  A    between atoms: _148  and  _149
REMARK   62  A    between atoms: _148  and  _151
REMARK   63  A    between atoms: _151  and  _152
REMARK   64  A    between atoms: _155  and  _157
REMARK   65  A    between atoms: _157  and  _158
REMARK   66  A    between atoms: _157  and  _160
REMARK   67  A    between atoms: _160  and  _161
REMARK   68  A    between atoms: _164  and  _166
REMARK   69  A    between atoms: _166  and  _167
REMARK   70  A    between atoms: _166  and  _169
REMARK   71  A    between atoms: _169  and  _170
REMARK   72  A    between atoms: _175  and  _177
REMARK   73  A    between atoms: _177  and  _178
REMARK   74  A    between atoms: _177  and  _180
REMARK   75  A    between atoms: _180  and  _181
REMARK   76  A    between atoms: _184  and  _186
REMARK   77  A    between atoms: _186  and  _187
REMARK   78  A    between atoms: _186  and  _189
REMARK   79  A    between atoms: _192  and  _194
REMARK   80  A    between atoms: _194  and  _195
REMARK   81  A    between atoms: _194  and  _197
REMARK   82  A    between atoms: _197  and  _198
REMARK   83  A    between atoms: _198  and  _199
REMARK   84  A    between atoms: _204  and  _206
REMARK   85  A    between atoms: _206  and  _207
REMARK   86  A    between atoms: _206  and  _209
REMARK   87  A    between atoms: _209  and  _210
REMARK   88  A    between atoms: _213  and  _215
REMARK   89  A    between atoms: _215  and  _216
REMARK   90  A    between atoms: _215  and  _218
REMARK   91  A    between atoms: _218  and  _219
REMARK   92  A    between atoms: _219  and  _220
REMARK   93  A    between atoms: _220  and  _221
REMARK   94  A    between atoms: _230  and  _232
REMARK   95  A    between atoms: _232  and  _233
REMARK   96  A    between atoms: _232  and  _235
REMARK   97  A    between atoms: _235  and  _236
REMARK   98  A    between atoms: _240  and  _241
REMARK   99  A    between atoms: _246  and  _248
REMARK  100  A    between atoms: _248  and  _249
REMARK  101  A    between atoms: _248  and  _251
REMARK  102  A    between atoms: _251  and  _252
REMARK  103  A    between atoms: _252  and  _253
REMARK  104  A    between atoms: _255  and  _257
REMARK  105  A    between atoms: _257  and  _258
REMARK  106  A    between atoms: _261  and  _263
REMARK  107  A    between atoms: _263  and  _264
REMARK  108  A    between atoms: _263  and  _266
REMARK  109  A    between atoms: _266  and  _267
REMARK  110  A    between atoms: _267  and  _268
REMARK  111  A    between atoms: _268  and  _269
REMARK  112  A    between atoms: _269  and  _270
REMARK  113  A    between atoms: _274  and  _276
REMARK  114  A    between atoms: _276  and  _277
REMARK  115  A    between atoms: _276  and  _279
REMARK  116  A    between atoms: _279  and  _280
REMARK  117  A    between atoms: _283  and  _285
REMARK  118  A    between atoms: _285  and  _286
REMARK  119  A    between atoms: _285  and  _288
REMARK  120  A    between atoms: _288  and  _289
REMARK  121  A    between atoms: _291  and  _293
REMARK  122  A    between atoms: _293  and  _294
REMARK  123  A    between atoms: _293  and  _296
REMARK  124  A    between atoms: _296  and  _297
REMARK  125  A    between atoms: _297  and  _412
REMARK  126  A    between atoms: _298  and  _300
REMARK  127  A    between atoms: _300  and  _301
REMARK  128  A    between atoms: _300  and  _303
REMARK  129  A    between atoms: _303  and  _304
REMARK  130  A    between atoms: _304  and  _305
REMARK  131  A    between atoms: _305  and  _306
REMARK  132  A    between atoms: _306  and  _307
REMARK  133  A    between atoms: _311  and  _313
REMARK  134  A    between atoms: _313  and  _314
REMARK  135  A    between atoms: _316  and  _318
REMARK  136  A    between atoms: _318  and  _319
REMARK  137  A    between atoms: _318  and  _321
REMARK  138  A    between atoms: _321  and  _322
REMARK  139  A    between atoms: _325  and  _327
REMARK  140  A    between atoms: _327  and  _328
REMARK  141  A    between atoms: _327  and  _330
REMARK  142  A    between atoms: _330  and  _331
REMARK  143  A    between atoms: _333  and  _335
REMARK  144  A    between atoms: _335  and  _336
REMARK  145  A    between atoms: _338  and  _340
REMARK  146  A    between atoms: _340  and  _341
REMARK  147  A    between atoms: _343  and  _345
REMARK  148  A    between atoms: _345  and  _346
REMARK  149  A    between atoms: _345  and  _348
REMARK  150  A    between atoms: _348  and  _349
REMARK  151  A    between atoms: _352  and  _354
REMARK  152  A    between atoms: _354  and  _355
REMARK  153  A    between atoms: _354  and  _357
REMARK  154  A    between atoms: _360  and  _362
REMARK  155  A    between atoms: _362  and  _363
REMARK  156  A    between atoms: _362  and  _365
REMARK  157  A    between atoms: _365  and  _366
REMARK  158  A    between atoms: _368  and  _370
REMARK  159  A    between atoms: _370  and  _371
REMARK  160  A    between atoms: _370  and  _373
REMARK  161  A    between atoms: _373  and  _374
REMARK  162  A    between atoms: _384  and  _386
REMARK  163  A    between atoms: _386  and  _387
REMARK  164  A    between atoms: _389  and  _391
REMARK  165  A    between atoms: _391  and  _392
REMARK  166  A    between atoms: _391  and  _394
REMARK  167  A    between atoms: _394  and  _395
REMARK  168  A    between atoms: _395  and  _396
REMARK  169  A    between atoms: _401  and  _403
REMARK  170  A    between atoms: _403  and  _404
REMARK  171  A    between atoms: _406  and  _408
REMARK  172  A    between atoms: _408  and  _409
REMARK  173  A    between atoms: _408  and  _411
REMARK  174  A    between atoms: _411  and  _412
REMARK  175  A    between atoms: _413  and  _415
REMARK  176  A    between atoms: _415  and  _416
REMARK  177  A    between atoms: _419  and  _421
REMARK  178  A    between atoms: _421  and  _422
REMARK  179  A    between atoms: _421  and  _424
REMARK  180  A    between atoms: _424  and  _425
REMARK  181  A    between atoms: _428  and  _430
REMARK  182  A    between atoms: _430  and  _431
REMARK  183  A    between atoms: _430  and  _433
REMARK  184  A    between atoms: _433  and  _434
REMARK  185  A    between atoms: _439  and  _441
REMARK  186  A    between atoms: _441  and  _442
REMARK  187  A    between atoms: _441  and  _444
REMARK  188  A    between atoms: _444  and  _445
REMARK  189  A    between atoms: _451  and  _453
REMARK  190  A    between atoms: _453  and  _454
REMARK  191  A    between atoms: _456  and  _458
REMARK  192  A    between atoms: _458  and  _459
REMARK  193  A    between atoms: _458  and  _461
REMARK  194  A    between atoms: _464  and  _466
REMARK  195  A    between atoms: _466  and  _467
REMARK  196  A    between atoms: _466  and  _469
REMARK  197  A    between atoms: _469  and  _470
REMARK  198  A    between atoms: _475  and  _476
REMARK  199  A    between atoms: _478  and  _480
REMARK  200  A    between atoms: _480  and  _481
REMARK  201  A    between atoms: _480  and  _483
REMARK  202  A    between atoms: _483  and  _484
REMARK                            x       y       z     vdW  Elec       q    Type
REMARK                         _______ _______ _______ _____ _____    ______ ____
ROOT
ATOM      1  O   HOH     1      -3.954  31.156  23.081  0.00  0.00    +0.000 OA
ENDROOT
TORSDOF 0
REMARK  Name = ../refined-set-2016/4ish/4ish_pocket.pdb
REMARK  202 active torsions:
REMARK  status: ('A' for Active; 'I' for Inactive)
REMARK    1  A    between atoms: _1  and  _5
REMARK    2  A    between atoms: _5  and  _6
REMARK    3  A    between atoms: _5  and  _8
REMARK    4  A    between atoms: _8  and  _9
REMARK    5  A    between atoms: _12  and  _14
REMARK    6  A    between atoms: _14  and  _15
REMARK    7  A    between atoms: _14  and  _17
REMARK    8  A    between atoms: _20  and  _22
REMARK    9  A    between atoms: _22  and  _23
REMARK   10  A    between atoms: _22  and  _25
REMARK   11  A    between atoms: _25  and  _26
REMARK   12  A    between atoms: _26  and  _27
REMARK   13  A    between atoms: _32  and  _34
REMARK   14  A    between atoms: _34  and  _35
REMARK   15  A    between atoms: _34  and  _37
REMARK   16  A    between atoms: _37  and  _38
REMARK   17  A    between atoms: _41  and  _43
REMARK   18  A    between atoms: _43  and  _44
REMARK   19  A    between atoms: _43  and  _46
REMARK   20  A    between atoms: _46  and  _47
REMARK   21  A    between atoms: _47  and  _77
REMARK   22  A    between atoms: _48  and  _50
REMARK   23  A    between atoms: _50  and  _51
REMARK   24  A    between atoms: _54  and  _56
REMARK   25  A    between atoms: _56  and  _57
REMARK   26  A    between atoms: _60  and  _62
REMARK   27  A    between atoms: _62  and  _63
REMARK   28  A    between atoms: _62  and  _65
REMARK   29  A    between atoms: _65  and  _66
REMARK   30  A    between atoms: _71  and  _73
REMARK   31  A    between atoms: _73  and  _74
REMARK   32  A    between atoms: _73  and  _76
REMARK   33  A    between atoms: _76  and  _77
REMARK   34  A    between atoms: _78  and  _80
REMARK   35  A    between atoms: _80  and  _81
REMARK   36  A    between atoms: _80  and  _83
REMARK   37  A    between atoms: _83  and  _84
REMARK   38  A    between atoms: _90  and  _92
REMARK   39  A    between atoms: _92  and  _93
REMARK   40  A    between atoms: _92  and  _95
REMARK   41  A    between atoms: _95  and  _96
REMARK   42  A    between atoms: _99  and  _101
REMARK   43  A    between atoms: _101  and  _102
REMARK   44  A    between atoms: _101  and  _104
REMARK   45  A    between atoms: _104  and  _105
REMARK   46  A    between atoms: _105  and  _106
REMARK   47  A    between atoms: _106  and  _107
REMARK   48  A    between atoms: _107  and  _108
REMARK   49  A    between atoms: _112  and  _114
REMARK   50  A    between atoms: _114  and  _115
REMARK   51  A    between atoms: _114  and  _117
REMARK   52  A    between atoms: _117  and  _118
REMARK   53  A    between atoms: _123  and  _124
REMARK   54  A    between atoms: _126  and  _128
REMARK   55  A    between atoms: _128  and  _129
REMARK   56  A    between atoms: _128  and  _131
REMARK   57  A    between atoms: _135  and  _136
REMARK   58  A    between atoms: _141  and  _143
REMARK   59  A    between atoms: _143  and  _144
REMARK   60  A    between atoms: _146  and  _148
REMARK   61  A    between atoms: _148  and  _149
REMARK   62  A    between atoms: _148  and  _151
REMARK   63  A    between atoms: _151  and  _152
REMARK   64  A    between atoms: _155  and  _157
REMARK   65  A    between atoms: _157  and  _158
REMARK   66  A    between atoms: _157  and  _160
REMARK   67  A    between atoms: _160  and  _161
REMARK   68  A    between atoms: _164  and  _166
REMARK   69  A    between atoms: _166  and  _167
REMARK   70  A    between atoms: _166  and  _169
REMARK   71  A    between atoms: _169  and  _170
REMARK   72  A    between atoms: _175  and  _177
REMARK   73  A    between atoms: _177  and  _178
REMARK   74  A    between atoms: _177  and  _180
REMARK   75  A    between atoms: _180  and  _181
REMARK   76  A    between atoms: _184  and  _186
REMARK   77  A    between atoms: _186  and  _187
REMARK   78  A    between atoms: _186  and  _189
REMARK   79  A    between atoms: _192  and  _194
REMARK   80  A    between atoms: _194  and  _195
REMARK   81  A    between atoms: _194  and  _197
REMARK   82  A    between atoms: _197  and  _198
REMARK   83  A    between atoms: _198  and  _199
REMARK   84  A    between atoms: _204  and  _206
REMARK   85  A    between atoms: _206  and  _207
REMARK   86  A    between atoms: _206  and  _209
REMARK   87  A    between atoms: _209  and  _210
REMARK   88  A    between atoms: _213  and  _215
REMARK   89  A    between atoms: _215  and  _216
REMARK   90  A    between atoms: _215  and  _218
REMARK   91  A    between atoms: _218  and  _219
REMARK   92  A    between atoms: _219  and  _220
REMARK   93  A    between atoms: _220  and  _221
REMARK   94  A    between atoms: _230  and  _232
REMARK   95  A    between atoms: _232  and  _233
REMARK   96  A    between atoms: _232  and  _235
REMARK   97  A    between atoms: _235  and  _236
REMARK   98  A    between atoms: _240  and  _241
REMARK   99  A    between atoms: _246  and  _248
REMARK  100  A    between atoms: _248  and  _249
REMARK  101  A    between atoms: _248  and  _251
REMARK  102  A    between atoms: _251  and  _252
REMARK  103  A    between atoms: _252  and  _253
REMARK  104  A    between atoms: _255  and  _257
REMARK  105  A    between atoms: _257  and  _258
REMARK  106  A    between atoms: _261  and  _263
REMARK  107  A    between atoms: _263  and  _264
REMARK  108  A    between atoms: _263  and  _266
REMARK  109  A    between atoms: _266  and  _267
REMARK  110  A    between atoms: _267  and  _268
REMARK  111  A    between atoms: _268  and  _269
REMARK  112  A    between atoms: _269  and  _270
REMARK  113  A    between atoms: _274  and  _276
REMARK  114  A    between atoms: _276  and  _277
REMARK  115  A    between atoms: _276  and  _279
REMARK  116  A    between atoms: _279  and  _280
REMARK  117  A    between atoms: _283  and  _285
REMARK  118  A    between atoms: _285  and  _286
REMARK  119  A    between atoms: _285  and  _288
REMARK  120  A    between atoms: _288  and  _289
REMARK  121  A    between atoms: _291  and  _293
REMARK  122  A    between atoms: _293  and  _294
REMARK  123  A    between atoms: _293  and  _296
REMARK  124  A    between atoms: _296  and  _297
REMARK  125  A    between atoms: _297  and  _412
REMARK  126  A    between atoms: _298  and  _300
REMARK  127  A    between atoms: _300  and  _301
REMARK  128  A    between atoms: _300  and  _303
REMARK  129  A    between atoms: _303  and  _304
REMARK  130  A    between atoms: _304  and  _305
REMARK  131  A    between atoms: _305  and  _306
REMARK  132  A    between atoms: _306  and  _307
REMARK  133  A    between atoms: _311  and  _313
REMARK  134  A    between atoms: _313  and  _314
REMARK  135  A    between atoms: _316  and  _318
REMARK  136  A    between atoms: _318  and  _319
REMARK  137  A    between atoms: _318  and  _321
REMARK  138  A    between atoms: _321  and  _322
REMARK  139  A    between atoms: _325  and  _327
REMARK  140  A    between atoms: _327  and  _328
REMARK  141  A    between atoms: _327  and  _330
REMARK  142  A    between atoms: _330  and  _331
REMARK  143  A    between atoms: _333  and  _335
REMARK  144  A    between atoms: _335  and  _336
REMARK  145  A    between atoms: _338  and  _340
REMARK  146  A    between atoms: _340  and  _341
REMARK  147  A    between atoms: _343  and  _345
REMARK  148  A    between atoms: _345  and  _346
REMARK  149  A    between atoms: _345  and  _348
REMARK  150  A    between atoms: _348  and  _349
REMARK  151  A    between atoms: _352  and  _354
REMARK  152  A    between atoms: _354  and  _355
REMARK  153  A    between atoms: _354  and  _357
REMARK  154  A    between atoms: _360  and  _362
REMARK  155  A    between atoms: _362  and  _363
REMARK  156  A    between atoms: _362  and  _365
REMARK  157  A    between atoms: _365  and  _366
REMARK  158  A    between atoms: _368  and  _370
REMARK  159  A    between atoms: _370  and  _371
REMARK  160  A    between atoms: _370  and  _373
REMARK  161  A    between atoms: _373  and  _374
REMARK  162  A    between atoms: _384  and  _386
REMARK  163  A    between atoms: _386  and  _387
REMARK  164  A    between atoms: _389  and  _391
REMARK  165  A    between atoms: _391  and  _392
REMARK  166  A    between atoms: _391  and  _394
REMARK  167  A    between atoms: _394  and  _395
REMARK  168  A    between atoms: _395  and  _396
REMARK  169  A    between atoms: _401  and  _403
REMARK  170  A    between atoms: _403  and  _404
REMARK  171  A    between atoms: _406  and  _408
REMARK  172  A    between atoms: _408  and  _409
REMARK  173  A    between atoms: _408  and  _411
REMARK  174  A    between atoms: _411  and  _412
REMARK  175  A    between atoms: _413  and  _415
REMARK  176  A    between atoms: _415  and  _416
REMARK  177  A    between atoms: _419  and  _421
REMARK  178  A    between atoms: _421  and  _422
REMARK  179  A    between atoms: _421  and  _424
REMARK  180  A    between atoms: _424  and  _425
REMARK  181  A    between atoms: _428  and  _430
REMARK  182  A    between atoms: _430  and  _431
REMARK  183  A    between atoms: _430  and  _433
REMARK  184  A    between atoms: _433  and  _434
REMARK  185  A    between atoms: _439  and  _441
REMARK  186  A    between atoms: _441  and  _442
REMARK  187  A    between atoms: _441  and  _444
REMARK  188  A    between atoms: _444  and  _445
REMARK  189  A    between atoms: _451  and  _453
REMARK  190  A    between atoms: _453  and  _454
REMARK  191  A    between atoms: _456  and  _458
REMARK  192  A    between atoms: _458  and  _459
REMARK  193  A    between atoms: _458  and  _461
REMARK  194  A    between atoms: _464  and  _466
REMARK  195  A    between atoms: _466  and  _467
REMARK  196  A    between atoms: _466  and  _469
REMARK  197  A    between atoms: _469  and  _470
REMARK  198  A    between atoms: _475  and  _476
REMARK  199  A    between atoms: _478  and  _480
REMARK  200  A    between atoms: _480  and  _481
REMARK  201  A    between atoms: _480  and  _483
REMARK  202  A    between atoms: _483  and  _484
REMARK                            x       y       z     vdW  Elec       q    Type
REMARK                         _______ _______ _______ _____ _____    ______ ____
ROOT
ATOM      1  O   HOH     1      13.098  41.406  23.328  0.00  0.00    +0.000 OA
ENDROOT
TORSDOF 0
REMARK  Name = ../refined-set-2016/4ish/4ish_pocket.pdb
REMARK  202 active torsions:
REMARK  status: ('A' for Active; 'I' for Inactive)
REMARK    1  A    between atoms: _1  and  _5
REMARK    2  A    between atoms: _5  and  _6
REMARK    3  A    between atoms: _5  and  _8
REMARK    4  A    between atoms: _8  and  _9
REMARK    5  A    between atoms: _12  and  _14
REMARK    6  A    between atoms: _14  and  _15
REMARK    7  A    between atoms: _14  and  _17
REMARK    8  A    between atoms: _20  and  _22
REMARK    9  A    between atoms: _22  and  _23
REMARK   10  A    between atoms: _22  and  _25
REMARK   11  A    between atoms: _25  and  _26
REMARK   12  A    between atoms: _26  and  _27
REMARK   13  A    between atoms: _32  and  _34
REMARK   14  A    between atoms: _34  and  _35
REMARK   15  A    between atoms: _34  and  _37
REMARK   16  A    between atoms: _37  and  _38
REMARK   17  A    between atoms: _41  and  _43
REMARK   18  A    between atoms: _43  and  _44
REMARK   19  A    between atoms: _43  and  _46
REMARK   20  A    between atoms: _46  and  _47
REMARK   21  A    between atoms: _47  and  _77
REMARK   22  A    between atoms: _48  and  _50
REMARK   23  A    between atoms: _50  and  _51
REMARK   24  A    between atoms: _54  and  _56
REMARK   25  A    between atoms: _56  and  _57
REMARK   26  A    between atoms: _60  and  _62
REMARK   27  A    between atoms: _62  and  _63
REMARK   28  A    between atoms: _62  and  _65
REMARK   29  A    between atoms: _65  and  _66
REMARK   30  A    between atoms: _71  and  _73
REMARK   31  A    between atoms: _73  and  _74
REMARK   32  A    between atoms: _73  and  _76
REMARK   33  A    between atoms: _76  and  _77
REMARK   34  A    between atoms: _78  and  _80
REMARK   35  A    between atoms: _80  and  _81
REMARK   36  A    between atoms: _80  and  _83
REMARK   37  A    between atoms: _83  and  _84
REMARK   38  A    between atoms: _90  and  _92
REMARK   39  A    between atoms: _92  and  _93
REMARK   40  A    between atoms: _92  and  _95
REMARK   41  A    between atoms: _95  and  _96
REMARK   42  A    between atoms: _99  and  _101
REMARK   43  A    between atoms: _101  and  _102
REMARK   44  A    between atoms: _101  and  _104
REMARK   45  A    between atoms: _104  and  _105
REMARK   46  A    between atoms: _105  and  _106
REMARK   47  A    between atoms: _106  and  _107
REMARK   48  A    between atoms: _107  and  _108
REMARK   49  A    between atoms: _112  and  _114
REMARK   50  A    between atoms: _114  and  _115
REMARK   51  A    between atoms: _114  and  _117
REMARK   52  A    between atoms: _117  and  _118
REMARK   53  A    between atoms: _123  and  _124
REMARK   54  A    between atoms: _126  and  _128
REMARK   55  A    between atoms: _128  and  _129
REMARK   56  A    between atoms: _128  and  _131
REMARK   57  A    between atoms: _135  and  _136
REMARK   58  A    between atoms: _141  and  _143
REMARK   59  A    between atoms: _143  and  _144
REMARK   60  A    between atoms: _146  and  _148
REMARK   61  A    between atoms: _148  and  _149
REMARK   62  A    between atoms: _148  and  _151
REMARK   63  A    between atoms: _151  and  _152
REMARK   64  A    between atoms: _155  and  _157
REMARK   65  A    between atoms: _157  and  _158
REMARK   66  A    between atoms: _157  and  _160
REMARK   67  A    between atoms: _160  and  _161
REMARK   68  A    between atoms: _164  and  _166
REMARK   69  A    between atoms: _166  and  _167
REMARK   70  A    between atoms: _166  and  _169
REMARK   71  A    between atoms: _169  and  _170
REMARK   72  A    between atoms: _175  and  _177
REMARK   73  A    between atoms: _177  and  _178
REMARK   74  A    between atoms: _177  and  _180
REMARK   75  A    between atoms: _180  and  _181
REMARK   76  A    between atoms: _184  and  _186
REMARK   77  A    between atoms: _186  and  _187
REMARK   78  A    between atoms: _186  and  _189
REMARK   79  A    between atoms: _192  and  _194
REMARK   80  A    between atoms: _194  and  _195
REMARK   81  A    between atoms: _194  and  _197
REMARK   82  A    between atoms: _197  and  _198
REMARK   83  A    between atoms: _198  and  _199
REMARK   84  A    between atoms: _204  and  _206
REMARK   85  A    between atoms: _206  and  _207
REMARK   86  A    between atoms: _206  and  _209
REMARK   87  A    between atoms: _209  and  _210
REMARK   88  A    between atoms: _213  and  _215
REMARK   89  A    between atoms: _215  and  _216
REMARK   90  A    between atoms: _215  and  _218
REMARK   91  A    between atoms: _218  and  _219
REMARK   92  A    between atoms: _219  and  _220
REMARK   93  A    between atoms: _220  and  _221
REMARK   94  A    between atoms: _230  and  _232
REMARK   95  A    between atoms: _232  and  _233
REMARK   96  A    between atoms: _232  and  _235
REMARK   97  A    between atoms: _235  and  _236
REMARK   98  A    between atoms: _240  and  _241
REMARK   99  A    between atoms: _246  and  _248
REMARK  100  A    between atoms: _248  and  _249
REMARK  101  A    between atoms: _248  and  _251
REMARK  102  A    between atoms: _251  and  _252
REMARK  103  A    between atoms: _252  and  _253
REMARK  104  A    between atoms: _255  and  _257
REMARK  105  A    between atoms: _257  and  _258
REMARK  106  A    between atoms: _261  and  _263
REMARK  107  A    between atoms: _263  and  _264
REMARK  108  A    between atoms: _263  and  _266
REMARK  109  A    between atoms: _266  and  _267
REMARK  110  A    between atoms: _267  and  _268
REMARK  111  A    between atoms: _268  and  _269
REMARK  112  A    between atoms: _269  and  _270
REMARK  113  A    between atoms: _274  and  _276
REMARK  114  A    between atoms: _276  and  _277
REMARK  115  A    between atoms: _276  and  _279
REMARK  116  A    between atoms: _279  and  _280
REMARK  117  A    between atoms: _283  and  _285
REMARK  118  A    between atoms: _285  and  _286
REMARK  119  A    between atoms: _285  and  _288
REMARK  120  A    between atoms: _288  and  _289
REMARK  121  A    between atoms: _291  and  _293
REMARK  122  A    between atoms: _293  and  _294
REMARK  123  A    between atoms: _293  and  _296
REMARK  124  A    between atoms: _296  and  _297
REMARK  125  A    between atoms: _297  and  _412
REMARK  126  A    between atoms: _298  and  _300
REMARK  127  A    between atoms: _300  and  _301
REMARK  128  A    between atoms: _300  and  _303
REMARK  129  A    between atoms: _303  and  _304
REMARK  130  A    between atoms: _304  and  _305
REMARK  131  A    between atoms: _305  and  _306
REMARK  132  A    between atoms: _306  and  _307
REMARK  133  A    between atoms: _311  and  _313
REMARK  134  A    between atoms: _313  and  _314
REMARK  135  A    between atoms: _316  and  _318
REMARK  136  A    between atoms: _318  and  _319
REMARK  137  A    between atoms: _318  and  _321
REMARK  138  A    between atoms: _321  and  _322
REMARK  139  A    between atoms: _325  and  _327
REMARK  140  A    between atoms: _327  and  _328
REMARK  141  A    between atoms: _327  and  _330
REMARK  142  A    between atoms: _330  and  _331
REMARK  143  A    between atoms: _333  and  _335
REMARK  144  A    between atoms: _335  and  _336
REMARK  145  A    between atoms: _338  and  _340
REMARK  146  A    between atoms: _340  and  _341
REMARK  147  A    between atoms: _343  and  _345
REMARK  148  A    between atoms: _345  and  _346
REMARK  149  A    between atoms: _345  and  _348
REMARK  150  A    between atoms: _348  and  _349
REMARK  151  A    between atoms: _352  and  _354
REMARK  152  A    between atoms: _354  and  _355
REMARK  153  A    between atoms: _354  and  _357
REMARK  154  A    between atoms: _360  and  _362
REMARK  155  A    between atoms: _362  and  _363
REMARK  156  A    between atoms: _362  and  _365
REMARK  157  A    between atoms: _365  and  _366
REMARK  158  A    between atoms: _368  and  _370
REMARK  159  A    between atoms: _370  and  _371
REMARK  160  A    between atoms: _370  and  _373
REMARK  161  A    between atoms: _373  and  _374
REMARK  162  A    between atoms: _384  and  _386
REMARK  163  A    between atoms: _386  and  _387
REMARK  164  A    between atoms: _389  and  _391
REMARK  165  A    between atoms: _391  and  _392
REMARK  166  A    between atoms: _391  and  _394
REMARK  167  A    between atoms: _394  and  _395
REMARK  168  A    between atoms: _395  and  _396
REMARK  169  A    between atoms: _401  and  _403
REMARK  170  A    between atoms: _403  and  _404
REMARK  171  A    between atoms: _406  and  _408
REMARK  172  A    between atoms: _408  and  _409
REMARK  173  A    between atoms: _408  and  _411
REMARK  174  A    between atoms: _411  and  _412
REMARK  175  A    between atoms: _413  and  _415
REMARK  176  A    between atoms: _415  and  _416
REMARK  177  A    between atoms: _419  and  _421
REMARK  178  A    between atoms: _421  and  _422
REMARK  179  A    between atoms: _421  and  _424
REMARK  180  A    between atoms: _424  and  _425
REMARK  181  A    between atoms: _428  and  _430
REMARK  182  A    between atoms: _430  and  _431
REMARK  183  A    between atoms: _430  and  _433
REMARK  184  A    between atoms: _433  and  _434
REMARK  185  A    between atoms: _439  and  _441
REMARK  186  A    between atoms: _441  and  _442
REMARK  187  A    between atoms: _441  and  _444
REMARK  188  A    between atoms: _444  and  _445
REMARK  189  A    between atoms: _451  and  _453
REMARK  190  A    between atoms: _453  and  _454
REMARK  191  A    between atoms: _456  and  _458
REMARK  192  A    between atoms: _458  and  _459
REMARK  193  A    between atoms: _458  and  _461
REMARK  194  A    between atoms: _464  and  _466
REMARK  195  A    between atoms: _466  and  _467
REMARK  196  A    between atoms: _466  and  _469
REMARK  197  A    between atoms: _469  and  _470
REMARK  198  A    between atoms: _475  and  _476
REMARK  199  A    between atoms: _478  and  _480
REMARK  200  A    between atoms: _480  and  _481
REMARK  201  A    between atoms: _480  and  _483
REMARK  202  A    between atoms: _483  and  _484
REMARK                            x       y       z     vdW  Elec       q    Type
REMARK                         _______ _______ _______ _____ _____    ______ ____
ROOT
ATOM      1  O   HOH     1       9.054  33.760  34.897  0.00  0.00    +0.000 OA
ENDROOT
TORSDOF 0
REMARK  Name = ../refined-set-2016/4ish/4ish_pocket.pdb
REMARK  202 active torsions:
REMARK  status: ('A' for Active; 'I' for Inactive)
REMARK    1  A    between atoms: _1  and  _5
REMARK    2  A    between atoms: _5  and  _6
REMARK    3  A    between atoms: _5  and  _8
REMARK    4  A    between atoms: _8  and  _9
REMARK    5  A    between atoms: _12  and  _14
REMARK    6  A    between atoms: _14  and  _15
REMARK    7  A    between atoms: _14  and  _17
REMARK    8  A    between atoms: _20  and  _22
REMARK    9  A    between atoms: _22  and  _23
REMARK   10  A    between atoms: _22  and  _25
REMARK   11  A    between atoms: _25  and  _26
REMARK   12  A    between atoms: _26  and  _27
REMARK   13  A    between atoms: _32  and  _34
REMARK   14  A    between atoms: _34  and  _35
REMARK   15  A    between atoms: _34  and  _37
REMARK   16  A    between atoms: _37  and  _38
REMARK   17  A    between atoms: _41  and  _43
REMARK   18  A    between atoms: _43  and  _44
REMARK   19  A    between atoms: _43  and  _46
REMARK   20  A    between atoms: _46  and  _47
REMARK   21  A    between atoms: _47  and  _77
REMARK   22  A    between atoms: _48  and  _50
REMARK   23  A    between atoms: _50  and  _51
REMARK   24  A    between atoms: _54  and  _56
REMARK   25  A    between atoms: _56  and  _57
REMARK   26  A    between atoms: _60  and  _62
REMARK   27  A    between atoms: _62  and  _63
REMARK   28  A    between atoms: _62  and  _65
REMARK   29  A    between atoms: _65  and  _66
REMARK   30  A    between atoms: _71  and  _73
REMARK   31  A    between atoms: _73  and  _74
REMARK   32  A    between atoms: _73  and  _76
REMARK   33  A    between atoms: _76  and  _77
REMARK   34  A    between atoms: _78  and  _80
REMARK   35  A    between atoms: _80  and  _81
REMARK   36  A    between atoms: _80  and  _83
REMARK   37  A    between atoms: _83  and  _84
REMARK   38  A    between atoms: _90  and  _92
REMARK   39  A    between atoms: _92  and  _93
REMARK   40  A    between atoms: _92  and  _95
REMARK   41  A    between atoms: _95  and  _96
REMARK   42  A    between atoms: _99  and  _101
REMARK   43  A    between atoms: _101  and  _102
REMARK   44  A    between atoms: _101  and  _104
REMARK   45  A    between atoms: _104  and  _105
REMARK   46  A    between atoms: _105  and  _106
REMARK   47  A    between atoms: _106  and  _107
REMARK   48  A    between atoms: _107  and  _108
REMARK   49  A    between atoms: _112  and  _114
REMARK   50  A    between atoms: _114  and  _115
REMARK   51  A    between atoms: _114  and  _117
REMARK   52  A    between atoms: _117  and  _118
REMARK   53  A    between atoms: _123  and  _124
REMARK   54  A    between atoms: _126  and  _128
REMARK   55  A    between atoms: _128  and  _129
REMARK   56  A    between atoms: _128  and  _131
REMARK   57  A    between atoms: _135  and  _136
REMARK   58  A    between atoms: _141  and  _143
REMARK   59  A    between atoms: _143  and  _144
REMARK   60  A    between atoms: _146  and  _148
REMARK   61  A    between atoms: _148  and  _149
REMARK   62  A    between atoms: _148  and  _151
REMARK   63  A    between atoms: _151  and  _152
REMARK   64  A    between atoms: _155  and  _157
REMARK   65  A    between atoms: _157  and  _158
REMARK   66  A    between atoms: _157  and  _160
REMARK   67  A    between atoms: _160  and  _161
REMARK   68  A    between atoms: _164  and  _166
REMARK   69  A    between atoms: _166  and  _167
REMARK   70  A    between atoms: _166  and  _169
REMARK   71  A    between atoms: _169  and  _170
REMARK   72  A    between atoms: _175  and  _177
REMARK   73  A    between atoms: _177  and  _178
REMARK   74  A    between atoms: _177  and  _180
REMARK   75  A    between atoms: _180  and  _181
REMARK   76  A    between atoms: _184  and  _186
REMARK   77  A    between atoms: _186  and  _187
REMARK   78  A    between atoms: _186  and  _189
REMARK   79  A    between atoms: _192  and  _194
REMARK   80  A    between atoms: _194  and  _195
REMARK   81  A    between atoms: _194  and  _197
REMARK   82  A    between atoms: _197  and  _198
REMARK   83  A    between atoms: _198  and  _199
REMARK   84  A    between atoms: _204  and  _206
REMARK   85  A    between atoms: _206  and  _207
REMARK   86  A    between atoms: _206  and  _209
REMARK   87  A    between atoms: _209  and  _210
REMARK   88  A    between atoms: _213  and  _215
REMARK   89  A    between atoms: _215  and  _216
REMARK   90  A    between atoms: _215  and  _218
REMARK   91  A    between atoms: _218  and  _219
REMARK   92  A    between atoms: _219  and  _220
REMARK   93  A    between atoms: _220  and  _221
REMARK   94  A    between atoms: _230  and  _232
REMARK   95  A    between atoms: _232  and  _233
REMARK   96  A    between atoms: _232  and  _235
REMARK   97  A    between atoms: _235  and  _236
REMARK   98  A    between atoms: _240  and  _241
REMARK   99  A    between atoms: _246  and  _248
REMARK  100  A    between atoms: _248  and  _249
REMARK  101  A    between atoms: _248  and  _251
REMARK  102  A    between atoms: _251  and  _252
REMARK  103  A    between atoms: _252  and  _253
REMARK  104  A    between atoms: _255  and  _257
REMARK  105  A    between atoms: _257  and  _258
REMARK  106  A    between atoms: _261  and  _263
REMARK  107  A    between atoms: _263  and  _264
REMARK  108  A    between atoms: _263  and  _266
REMARK  109  A    between atoms: _266  and  _267
REMARK  110  A    between atoms: _267  and  _268
REMARK  111  A    between atoms: _268  and  _269
REMARK  112  A    between atoms: _269  and  _270
REMARK  113  A    between atoms: _274  and  _276
REMARK  114  A    between atoms: _276  and  _277
REMARK  115  A    between atoms: _276  and  _279
REMARK  116  A    between atoms: _279  and  _280
REMARK  117  A    between atoms: _283  and  _285
REMARK  118  A    between atoms: _285  and  _286
REMARK  119  A    between atoms: _285  and  _288
REMARK  120  A    between atoms: _288  and  _289
REMARK  121  A    between atoms: _291  and  _293
REMARK  122  A    between atoms: _293  and  _294
REMARK  123  A    between atoms: _293  and  _296
REMARK  124  A    between atoms: _296  and  _297
REMARK  125  A    between atoms: _297  and  _412
REMARK  126  A    between atoms: _298  and  _300
REMARK  127  A    between atoms: _300  and  _301
REMARK  128  A    between atoms: _300  and  _303
REMARK  129  A    between atoms: _303  and  _304
REMARK  130  A    between atoms: _304  and  _305
REMARK  131  A    between atoms: _305  and  _306
REMARK  132  A    between atoms: _306  and  _307
REMARK  133  A    between atoms: _311  and  _313
REMARK  134  A    between atoms: _313  and  _314
REMARK  135  A    between atoms: _316  and  _318
REMARK  136  A    between atoms: _318  and  _319
REMARK  137  A    between atoms: _318  and  _321
REMARK  138  A    between atoms: _321  and  _322
REMARK  139  A    between atoms: _325  and  _327
REMARK  140  A    between atoms: _327  and  _328
REMARK  141  A    between atoms: _327  and  _330
REMARK  142  A    between atoms: _330  and  _331
REMARK  143  A    between atoms: _333  and  _335
REMARK  144  A    between atoms: _335  and  _336
REMARK  145  A    between atoms: _338  and  _340
REMARK  146  A    between atoms: _340  and  _341
REMARK  147  A    between atoms: _343  and  _345
REMARK  148  A    between atoms: _345  and  _346
REMARK  149  A    between atoms: _345  and  _348
REMARK  150  A    between atoms: _348  and  _349
REMARK  151  A    between atoms: _352  and  _354
REMARK  152  A    between atoms: _354  and  _355
REMARK  153  A    between atoms: _354  and  _357
REMARK  154  A    between atoms: _360  and  _362
REMARK  155  A    between atoms: _362  and  _363
REMARK  156  A    between atoms: _362  and  _365
REMARK  157  A    between atoms: _365  and  _366
REMARK  158  A    between atoms: _368  and  _370
REMARK  159  A    between atoms: _370  and  _371
REMARK  160  A    between atoms: _370  and  _373
REMARK  161  A    between atoms: _373  and  _374
REMARK  162  A    between atoms: _384  and  _386
REMARK  163  A    between atoms: _386  and  _387
REMARK  164  A    between atoms: _389  and  _391
REMARK  165  A    between atoms: _391  and  _392
REMARK  166  A    between atoms: _391  and  _394
REMARK  167  A    between atoms: _394  and  _395
REMARK  168  A    between atoms: _395  and  _396
REMARK  169  A    between atoms: _401  and  _403
REMARK  170  A    between atoms: _403  and  _404
REMARK  171  A    between atoms: _406  and  _408
REMARK  172  A    between atoms: _408  and  _409
REMARK  173  A    between atoms: _408  and  _411
REMARK  174  A    between atoms: _411  and  _412
REMARK  175  A    between atoms: _413  and  _415
REMARK  176  A    between atoms: _415  and  _416
REMARK  177  A    between atoms: _419  and  _421
REMARK  178  A    between atoms: _421  and  _422
REMARK  179  A    between atoms: _421  and  _424
REMARK  180  A    between atoms: _424  and  _425
REMARK  181  A    between atoms: _428  and  _430
REMARK  182  A    between atoms: _430  and  _431
REMARK  183  A    between atoms: _430  and  _433
REMARK  184  A    between atoms: _433  and  _434
REMARK  185  A    between atoms: _439  and  _441
REMARK  186  A    between atoms: _441  and  _442
REMARK  187  A    between atoms: _441  and  _444
REMARK  188  A    between atoms: _444  and  _445
REMARK  189  A    between atoms: _451  and  _453
REMARK  190  A    between atoms: _453  and  _454
REMARK  191  A    between atoms: _456  and  _458
REMARK  192  A    between atoms: _458  and  _459
REMARK  193  A    between atoms: _458  and  _461
REMARK  194  A    between atoms: _464  and  _466
REMARK  195  A    between atoms: _466  and  _467
REMARK  196  A    between atoms: _466  and  _469
REMARK  197  A    between atoms: _469  and  _470
REMARK  198  A    between atoms: _475  and  _476
REMARK  199  A    between atoms: _478  and  _480
REMARK  200  A    between atoms: _480  and  _481
REMARK  201  A    between atoms: _480  and  _483
REMARK  202  A    between atoms: _483  and  _484
REMARK                            x       y       z     vdW  Elec       q    Type
REMARK                         _______ _______ _______ _____ _____    ______ ____
ROOT
ATOM      1  O   HOH     1       2.041  40.119  19.641  0.00  0.00    +0.000 OA
ENDROOT
TORSDOF 0
REMARK  Name = ../refined-set-2016/4ish/4ish_pocket.pdb
REMARK  202 active torsions:
REMARK  status: ('A' for Active; 'I' for Inactive)
REMARK    1  A    between atoms: _1  and  _5
REMARK    2  A    between atoms: _5  and  _6
REMARK    3  A    between atoms: _5  and  _8
REMARK    4  A    between atoms: _8  and  _9
REMARK    5  A    between atoms: _12  and  _14
REMARK    6  A    between atoms: _14  and  _15
REMARK    7  A    between atoms: _14  and  _17
REMARK    8  A    between atoms: _20  and  _22
REMARK    9  A    between atoms: _22  and  _23
REMARK   10  A    between atoms: _22  and  _25
REMARK   11  A    between atoms: _25  and  _26
REMARK   12  A    between atoms: _26  and  _27
REMARK   13  A    between atoms: _32  and  _34
REMARK   14  A    between atoms: _34  and  _35
REMARK   15  A    between atoms: _34  and  _37
REMARK   16  A    between atoms: _37  and  _38
REMARK   17  A    between atoms: _41  and  _43
REMARK   18  A    between atoms: _43  and  _44
REMARK   19  A    between atoms: _43  and  _46
REMARK   20  A    between atoms: _46  and  _47
REMARK   21  A    between atoms: _47  and  _77
REMARK   22  A    between atoms: _48  and  _50
REMARK   23  A    between atoms: _50  and  _51
REMARK   24  A    between atoms: _54  and  _56
REMARK   25  A    between atoms: _56  and  _57
REMARK   26  A    between atoms: _60  and  _62
REMARK   27  A    between atoms: _62  and  _63
REMARK   28  A    between atoms: _62  and  _65
REMARK   29  A    between atoms: _65  and  _66
REMARK   30  A    between atoms: _71  and  _73
REMARK   31  A    between atoms: _73  and  _74
REMARK   32  A    between atoms: _73  and  _76
REMARK   33  A    between atoms: _76  and  _77
REMARK   34  A    between atoms: _78  and  _80
REMARK   35  A    between atoms: _80  and  _81
REMARK   36  A    between atoms: _80  and  _83
REMARK   37  A    between atoms: _83  and  _84
REMARK   38  A    between atoms: _90  and  _92
REMARK   39  A    between atoms: _92  and  _93
REMARK   40  A    between atoms: _92  and  _95
REMARK   41  A    between atoms: _95  and  _96
REMARK   42  A    between atoms: _99  and  _101
REMARK   43  A    between atoms: _101  and  _102
REMARK   44  A    between atoms: _101  and  _104
REMARK   45  A    between atoms: _104  and  _105
REMARK   46  A    between atoms: _105  and  _106
REMARK   47  A    between atoms: _106  and  _107
REMARK   48  A    between atoms: _107  and  _108
REMARK   49  A    between atoms: _112  and  _114
REMARK   50  A    between atoms: _114  and  _115
REMARK   51  A    between atoms: _114  and  _117
REMARK   52  A    between atoms: _117  and  _118
REMARK   53  A    between atoms: _123  and  _124
REMARK   54  A    between atoms: _126  and  _128
REMARK   55  A    between atoms: _128  and  _129
REMARK   56  A    between atoms: _128  and  _131
REMARK   57  A    between atoms: _135  and  _136
REMARK   58  A    between atoms: _141  and  _143
REMARK   59  A    between atoms: _143  and  _144
REMARK   60  A    between atoms: _146  and  _148
REMARK   61  A    between atoms: _148  and  _149
REMARK   62  A    between atoms: _148  and  _151
REMARK   63  A    between atoms: _151  and  _152
REMARK   64  A    between atoms: _155  and  _157
REMARK   65  A    between atoms: _157  and  _158
REMARK   66  A    between atoms: _157  and  _160
REMARK   67  A    between atoms: _160  and  _161
REMARK   68  A    between atoms: _164  and  _166
REMARK   69  A    between atoms: _166  and  _167
REMARK   70  A    between atoms: _166  and  _169
REMARK   71  A    between atoms: _169  and  _170
REMARK   72  A    between atoms: _175  and  _177
REMARK   73  A    between atoms: _177  and  _178
REMARK   74  A    between atoms: _177  and  _180
REMARK   75  A    between atoms: _180  and  _181
REMARK   76  A    between atoms: _184  and  _186
REMARK   77  A    between atoms: _186  and  _187
REMARK   78  A    between atoms: _186  and  _189
REMARK   79  A    between atoms: _192  and  _194
REMARK   80  A    between atoms: _194  and  _195
REMARK   81  A    between atoms: _194  and  _197
REMARK   82  A    between atoms: _197  and  _198
REMARK   83  A    between atoms: _198  and  _199
REMARK   84  A    between atoms: _204  and  _206
REMARK   85  A    between atoms: _206  and  _207
REMARK   86  A    between atoms: _206  and  _209
REMARK   87  A    between atoms: _209  and  _210
REMARK   88  A    between atoms: _213  and  _215
REMARK   89  A    between atoms: _215  and  _216
REMARK   90  A    between atoms: _215  and  _218
REMARK   91  A    between atoms: _218  and  _219
REMARK   92  A    between atoms: _219  and  _220
REMARK   93  A    between atoms: _220  and  _221
REMARK   94  A    between atoms: _230  and  _232
REMARK   95  A    between atoms: _232  and  _233
REMARK   96  A    between atoms: _232  and  _235
REMARK   97  A    between atoms: _235  and  _236
REMARK   98  A    between atoms: _240  and  _241
REMARK   99  A    between atoms: _246  and  _248
REMARK  100  A    between atoms: _248  and  _249
REMARK  101  A    between atoms: _248  and  _251
REMARK  102  A    between atoms: _251  and  _252
REMARK  103  A    between atoms: _252  and  _253
REMARK  104  A    between atoms: _255  and  _257
REMARK  105  A    between atoms: _257  and  _258
REMARK  106  A    between atoms: _261  and  _263
REMARK  107  A    between atoms: _263  and  _264
REMARK  108  A    between atoms: _263  and  _266
REMARK  109  A    between atoms: _266  and  _267
REMARK  110  A    between atoms: _267  and  _268
REMARK  111  A    between atoms: _268  and  _269
REMARK  112  A    between atoms: _269  and  _270
REMARK  113  A    between atoms: _274  and  _276
REMARK  114  A    between atoms: _276  and  _277
REMARK  115  A    between atoms: _276  and  _279
REMARK  116  A    between atoms: _279  and  _280
REMARK  117  A    between atoms: _283  and  _285
REMARK  118  A    between atoms: _285  and  _286
REMARK  119  A    between atoms: _285  and  _288
REMARK  120  A    between atoms: _288  and  _289
REMARK  121  A    between atoms: _291  and  _293
REMARK  122  A    between atoms: _293  and  _294
REMARK  123  A    between atoms: _293  and  _296
REMARK  124  A    between atoms: _296  and  _297
REMARK  125  A    between atoms: _297  and  _412
REMARK  126  A    between atoms: _298  and  _300
REMARK  127  A    between atoms: _300  and  _301
REMARK  128  A    between atoms: _300  and  _303
REMARK  129  A    between atoms: _303  and  _304
REMARK  130  A    between atoms: _304  and  _305
REMARK  131  A    between atoms: _305  and  _306
REMARK  132  A    between atoms: _306  and  _307
REMARK  133  A    between atoms: _311  and  _313
REMARK  134  A    between atoms: _313  and  _314
REMARK  135  A    between atoms: _316  and  _318
REMARK  136  A    between atoms: _318  and  _319
REMARK  137  A    between atoms: _318  and  _321
REMARK  138  A    between atoms: _321  and  _322
REMARK  139  A    between atoms: _325  and  _327
REMARK  140  A    between atoms: _327  and  _328
REMARK  141  A    between atoms: _327  and  _330
REMARK  142  A    between atoms: _330  and  _331
REMARK  143  A    between atoms: _333  and  _335
REMARK  144  A    between atoms: _335  and  _336
REMARK  145  A    between atoms: _338  and  _340
REMARK  146  A    between atoms: _340  and  _341
REMARK  147  A    between atoms: _343  and  _345
REMARK  148  A    between atoms: _345  and  _346
REMARK  149  A    between atoms: _345  and  _348
REMARK  150  A    between atoms: _348  and  _349
REMARK  151  A    between atoms: _352  and  _354
REMARK  152  A    between atoms: _354  and  _355
REMARK  153  A    between atoms: _354  and  _357
REMARK  154  A    between atoms: _360  and  _362
REMARK  155  A    between atoms: _362  and  _363
REMARK  156  A    between atoms: _362  and  _365
REMARK  157  A    between atoms: _365  and  _366
REMARK  158  A    between atoms: _368  and  _370
REMARK  159  A    between atoms: _370  and  _371
REMARK  160  A    between atoms: _370  and  _373
REMARK  161  A    between atoms: _373  and  _374
REMARK  162  A    between atoms: _384  and  _386
REMARK  163  A    between atoms: _386  and  _387
REMARK  164  A    between atoms: _389  and  _391
REMARK  165  A    between atoms: _391  and  _392
REMARK  166  A    between atoms: _391  and  _394
REMARK  167  A    between atoms: _394  and  _395
REMARK  168  A    between atoms: _395  and  _396
REMARK  169  A    between atoms: _401  and  _403
REMARK  170  A    between atoms: _403  and  _404
REMARK  171  A    between atoms: _406  and  _408
REMARK  172  A    between atoms: _408  and  _409
REMARK  173  A    between atoms: _408  and  _411
REMARK  174  A    between atoms: _411  and  _412
REMARK  175  A    between atoms: _413  and  _415
REMARK  176  A    between atoms: _415  and  _416
REMARK  177  A    between atoms: _419  and  _421
REMARK  178  A    between atoms: _421  and  _422
REMARK  179  A    between atoms: _421  and  _424
REMARK  180  A    between atoms: _424  and  _425
REMARK  181  A    between atoms: _428  and  _430
REMARK  182  A    between atoms: _430  and  _431
REMARK  183  A    between atoms: _430  and  _433
REMARK  184  A    between atoms: _433  and  _434
REMARK  185  A    between atoms: _439  and  _441
REMARK  186  A    between atoms: _441  and  _442
REMARK  187  A    between atoms: _441  and  _444
REMARK  188  A    between atoms: _444  and  _445
REMARK  189  A    between atoms: _451  and  _453
REMARK  190  A    between atoms: _453  and  _454
REMARK  191  A    between atoms: _456  and  _458
REMARK  192  A    between atoms: _458  and  _459
REMARK  193  A    between atoms: _458  and  _461
REMARK  194  A    between atoms: _464  and  _466
REMARK  195  A    between atoms: _466  and  _467
REMARK  196  A    between atoms: _466  and  _469
REMARK  197  A    between atoms: _469  and  _470
REMARK  198  A    between atoms: _475  and  _476
REMARK  199  A    between atoms: _478  and  _480
REMARK  200  A    between atoms: _480  and  _481
REMARK  201  A    between atoms: _480  and  _483
REMARK  202  A    between atoms: _483  and  _484
REMARK                            x       y       z     vdW  Elec       q    Type
REMARK                         _______ _______ _______ _____ _____    ______ ____
ROOT
ATOM      1  O   HOH     1       5.047  39.192  31.162  0.00  0.00    +0.000 OA
ENDROOT
TORSDOF 0
REMARK  Name = ../refined-set-2016/4ish/4ish_pocket.pdb
REMARK  202 active torsions:
REMARK  status: ('A' for Active; 'I' for Inactive)
REMARK    1  A    between atoms: _1  and  _5
REMARK    2  A    between atoms: _5  and  _6
REMARK    3  A    between atoms: _5  and  _8
REMARK    4  A    between atoms: _8  and  _9
REMARK    5  A    between atoms: _12  and  _14
REMARK    6  A    between atoms: _14  and  _15
REMARK    7  A    between atoms: _14  and  _17
REMARK    8  A    between atoms: _20  and  _22
REMARK    9  A    between atoms: _22  and  _23
REMARK   10  A    between atoms: _22  and  _25
REMARK   11  A    between atoms: _25  and  _26
REMARK   12  A    between atoms: _26  and  _27
REMARK   13  A    between atoms: _32  and  _34
REMARK   14  A    between atoms: _34  and  _35
REMARK   15  A    between atoms: _34  and  _37
REMARK   16  A    between atoms: _37  and  _38
REMARK   17  A    between atoms: _41  and  _43
REMARK   18  A    between atoms: _43  and  _44
REMARK   19  A    between atoms: _43  and  _46
REMARK   20  A    between atoms: _46  and  _47
REMARK   21  A    between atoms: _47  and  _77
REMARK   22  A    between atoms: _48  and  _50
REMARK   23  A    between atoms: _50  and  _51
REMARK   24  A    between atoms: _54  and  _56
REMARK   25  A    between atoms: _56  and  _57
REMARK   26  A    between atoms: _60  and  _62
REMARK   27  A    between atoms: _62  and  _63
REMARK   28  A    between atoms: _62  and  _65
REMARK   29  A    between atoms: _65  and  _66
REMARK   30  A    between atoms: _71  and  _73
REMARK   31  A    between atoms: _73  and  _74
REMARK   32  A    between atoms: _73  and  _76
REMARK   33  A    between atoms: _76  and  _77
REMARK   34  A    between atoms: _78  and  _80
REMARK   35  A    between atoms: _80  and  _81
REMARK   36  A    between atoms: _80  and  _83
REMARK   37  A    between atoms: _83  and  _84
REMARK   38  A    between atoms: _90  and  _92
REMARK   39  A    between atoms: _92  and  _93
REMARK   40  A    between atoms: _92  and  _95
REMARK   41  A    between atoms: _95  and  _96
REMARK   42  A    between atoms: _99  and  _101
REMARK   43  A    between atoms: _101  and  _102
REMARK   44  A    between atoms: _101  and  _104
REMARK   45  A    between atoms: _104  and  _105
REMARK   46  A    between atoms: _105  and  _106
REMARK   47  A    between atoms: _106  and  _107
REMARK   48  A    between atoms: _107  and  _108
REMARK   49  A    between atoms: _112  and  _114
REMARK   50  A    between atoms: _114  and  _115
REMARK   51  A    between atoms: _114  and  _117
REMARK   52  A    between atoms: _117  and  _118
REMARK   53  A    between atoms: _123  and  _124
REMARK   54  A    between atoms: _126  and  _128
REMARK   55  A    between atoms: _128  and  _129
REMARK   56  A    between atoms: _128  and  _131
REMARK   57  A    between atoms: _135  and  _136
REMARK   58  A    between atoms: _141  and  _143
REMARK   59  A    between atoms: _143  and  _144
REMARK   60  A    between atoms: _146  and  _148
REMARK   61  A    between atoms: _148  and  _149
REMARK   62  A    between atoms: _148  and  _151
REMARK   63  A    between atoms: _151  and  _152
REMARK   64  A    between atoms: _155  and  _157
REMARK   65  A    between atoms: _157  and  _158
REMARK   66  A    between atoms: _157  and  _160
REMARK   67  A    between atoms: _160  and  _161
REMARK   68  A    between atoms: _164  and  _166
REMARK   69  A    between atoms: _166  and  _167
REMARK   70  A    between atoms: _166  and  _169
REMARK   71  A    between atoms: _169  and  _170
REMARK   72  A    between atoms: _175  and  _177
REMARK   73  A    between atoms: _177  and  _178
REMARK   74  A    between atoms: _177  and  _180
REMARK   75  A    between atoms: _180  and  _181
REMARK   76  A    between atoms: _184  and  _186
REMARK   77  A    between atoms: _186  and  _187
REMARK   78  A    between atoms: _186  and  _189
REMARK   79  A    between atoms: _192  and  _194
REMARK   80  A    between atoms: _194  and  _195
REMARK   81  A    between atoms: _194  and  _197
REMARK   82  A    between atoms: _197  and  _198
REMARK   83  A    between atoms: _198  and  _199
REMARK   84  A    between atoms: _204  and  _206
REMARK   85  A    between atoms: _206  and  _207
REMARK   86  A    between atoms: _206  and  _209
REMARK   87  A    between atoms: _209  and  _210
REMARK   88  A    between atoms: _213  and  _215
REMARK   89  A    between atoms: _215  and  _216
REMARK   90  A    between atoms: _215  and  _218
REMARK   91  A    between atoms: _218  and  _219
REMARK   92  A    between atoms: _219  and  _220
REMARK   93  A    between atoms: _220  and  _221
REMARK   94  A    between atoms: _230  and  _232
REMARK   95  A    between atoms: _232  and  _233
REMARK   96  A    between atoms: _232  and  _235
REMARK   97  A    between atoms: _235  and  _236
REMARK   98  A    between atoms: _240  and  _241
REMARK   99  A    between atoms: _246  and  _248
REMARK  100  A    between atoms: _248  and  _249
REMARK  101  A    between atoms: _248  and  _251
REMARK  102  A    between atoms: _251  and  _252
REMARK  103  A    between atoms: _252  and  _253
REMARK  104  A    between atoms: _255  and  _257
REMARK  105  A    between atoms: _257  and  _258
REMARK  106  A    between atoms: _261  and  _263
REMARK  107  A    between atoms: _263  and  _264
REMARK  108  A    between atoms: _263  and  _266
REMARK  109  A    between atoms: _266  and  _267
REMARK  110  A    between atoms: _267  and  _268
REMARK  111  A    between atoms: _268  and  _269
REMARK  112  A    between atoms: _269  and  _270
REMARK  113  A    between atoms: _274  and  _276
REMARK  114  A    between atoms: _276  and  _277
REMARK  115  A    between atoms: _276  and  _279
REMARK  116  A    between atoms: _279  and  _280
REMARK  117  A    between atoms: _283  and  _285
REMARK  118  A    between atoms: _285  and  _286
REMARK  119  A    between atoms: _285  and  _288
REMARK  120  A    between atoms: _288  and  _289
REMARK  121  A    between atoms: _291  and  _293
REMARK  122  A    between atoms: _293  and  _294
REMARK  123  A    between atoms: _293  and  _296
REMARK  124  A    between atoms: _296  and  _297
REMARK  125  A    between atoms: _297  and  _412
REMARK  126  A    between atoms: _298  and  _300
REMARK  127  A    between atoms: _300  and  _301
REMARK  128  A    between atoms: _300  and  _303
REMARK  129  A    between atoms: _303  and  _304
REMARK  130  A    between atoms: _304  and  _305
REMARK  131  A    between atoms: _305  and  _306
REMARK  132  A    between atoms: _306  and  _307
REMARK  133  A    between atoms: _311  and  _313
REMARK  134  A    between atoms: _313  and  _314
REMARK  135  A    between atoms: _316  and  _318
REMARK  136  A    between atoms: _318  and  _319
REMARK  137  A    between atoms: _318  and  _321
REMARK  138  A    between atoms: _321  and  _322
REMARK  139  A    between atoms: _325  and  _327
REMARK  140  A    between atoms: _327  and  _328
REMARK  141  A    between atoms: _327  and  _330
REMARK  142  A    between atoms: _330  and  _331
REMARK  143  A    between atoms: _333  and  _335
REMARK  144  A    between atoms: _335  and  _336
REMARK  145  A    between atoms: _338  and  _340
REMARK  146  A    between atoms: _340  and  _341
REMARK  147  A    between atoms: _343  and  _345
REMARK  148  A    between atoms: _345  and  _346
REMARK  149  A    between atoms: _345  and  _348
REMARK  150  A    between atoms: _348  and  _349
REMARK  151  A    between atoms: _352  and  _354
REMARK  152  A    between atoms: _354  and  _355
REMARK  153  A    between atoms: _354  and  _357
REMARK  154  A    between atoms: _360  and  _362
REMARK  155  A    between atoms: _362  and  _363
REMARK  156  A    between atoms: _362  and  _365
REMARK  157  A    between atoms: _365  and  _366
REMARK  158  A    between atoms: _368  and  _370
REMARK  159  A    between atoms: _370  and  _371
REMARK  160  A    between atoms: _370  and  _373
REMARK  161  A    between atoms: _373  and  _374
REMARK  162  A    between atoms: _384  and  _386
REMARK  163  A    between atoms: _386  and  _387
REMARK  164  A    between atoms: _389  and  _391
REMARK  165  A    between atoms: _391  and  _392
REMARK  166  A    between atoms: _391  and  _394
REMARK  167  A    between atoms: _394  and  _395
REMARK  168  A    between atoms: _395  and  _396
REMARK  169  A    between atoms: _401  and  _403
REMARK  170  A    between atoms: _403  and  _404
REMARK  171  A    between atoms: _406  and  _408
REMARK  172  A    between atoms: _408  and  _409
REMARK  173  A    between atoms: _408  and  _411
REMARK  174  A    between atoms: _411  and  _412
REMARK  175  A    between atoms: _413  and  _415
REMARK  176  A    between atoms: _415  and  _416
REMARK  177  A    between atoms: _419  and  _421
REMARK  178  A    between atoms: _421  and  _422
REMARK  179  A    between atoms: _421  and  _424
REMARK  180  A    between atoms: _424  and  _425
REMARK  181  A    between atoms: _428  and  _430
REMARK  182  A    between atoms: _430  and  _431
REMARK  183  A    between atoms: _430  and  _433
REMARK  184  A    between atoms: _433  and  _434
REMARK  185  A    between atoms: _439  and  _441
REMARK  186  A    between atoms: _441  and  _442
REMARK  187  A    between atoms: _441  and  _444
REMARK  188  A    between atoms: _444  and  _445
REMARK  189  A    between atoms: _451  and  _453
REMARK  190  A    between atoms: _453  and  _454
REMARK  191  A    between atoms: _456  and  _458
REMARK  192  A    between atoms: _458  and  _459
REMARK  193  A    between atoms: _458  and  _461
REMARK  194  A    between atoms: _464  and  _466
REMARK  195  A    between atoms: _466  and  _467
REMARK  196  A    between atoms: _466  and  _469
REMARK  197  A    between atoms: _469  and  _470
REMARK  198  A    between atoms: _475  and  _476
REMARK  199  A    between atoms: _478  and  _480
REMARK  200  A    between atoms: _480  and  _481
REMARK  201  A    between atoms: _480  and  _483
REMARK  202  A    between atoms: _483  and  _484
REMARK                            x       y       z     vdW  Elec       q    Type
REMARK                         _______ _______ _______ _____ _____    ______ ____
ROOT
ATOM      1  O   HOH     1      11.754  38.820  21.131  0.00  0.00    +0.000 OA
ENDROOT
TORSDOF 0
REMARK  Name = ../refined-set-2016/4ish/4ish_pocket.pdb
REMARK  202 active torsions:
REMARK  status: ('A' for Active; 'I' for Inactive)
REMARK    1  A    between atoms: _1  and  _5
REMARK    2  A    between atoms: _5  and  _6
REMARK    3  A    between atoms: _5  and  _8
REMARK    4  A    between atoms: _8  and  _9
REMARK    5  A    between atoms: _12  and  _14
REMARK    6  A    between atoms: _14  and  _15
REMARK    7  A    between atoms: _14  and  _17
REMARK    8  A    between atoms: _20  and  _22
REMARK    9  A    between atoms: _22  and  _23
REMARK   10  A    between atoms: _22  and  _25
REMARK   11  A    between atoms: _25  and  _26
REMARK   12  A    between atoms: _26  and  _27
REMARK   13  A    between atoms: _32  and  _34
REMARK   14  A    between atoms: _34  and  _35
REMARK   15  A    between atoms: _34  and  _37
REMARK   16  A    between atoms: _37  and  _38
REMARK   17  A    between atoms: _41  and  _43
REMARK   18  A    between atoms: _43  and  _44
REMARK   19  A    between atoms: _43  and  _46
REMARK   20  A    between atoms: _46  and  _47
REMARK   21  A    between atoms: _47  and  _77
REMARK   22  A    between atoms: _48  and  _50
REMARK   23  A    between atoms: _50  and  _51
REMARK   24  A    between atoms: _54  and  _56
REMARK   25  A    between atoms: _56  and  _57
REMARK   26  A    between atoms: _60  and  _62
REMARK   27  A    between atoms: _62  and  _63
REMARK   28  A    between atoms: _62  and  _65
REMARK   29  A    between atoms: _65  and  _66
REMARK   30  A    between atoms: _71  and  _73
REMARK   31  A    between atoms: _73  and  _74
REMARK   32  A    between atoms: _73  and  _76
REMARK   33  A    between atoms: _76  and  _77
REMARK   34  A    between atoms: _78  and  _80
REMARK   35  A    between atoms: _80  and  _81
REMARK   36  A    between atoms: _80  and  _83
REMARK   37  A    between atoms: _83  and  _84
REMARK   38  A    between atoms: _90  and  _92
REMARK   39  A    between atoms: _92  and  _93
REMARK   40  A    between atoms: _92  and  _95
REMARK   41  A    between atoms: _95  and  _96
REMARK   42  A    between atoms: _99  and  _101
REMARK   43  A    between atoms: _101  and  _102
REMARK   44  A    between atoms: _101  and  _104
REMARK   45  A    between atoms: _104  and  _105
REMARK   46  A    between atoms: _105  and  _106
REMARK   47  A    between atoms: _106  and  _107
REMARK   48  A    between atoms: _107  and  _108
REMARK   49  A    between atoms: _112  and  _114
REMARK   50  A    between atoms: _114  and  _115
REMARK   51  A    between atoms: _114  and  _117
REMARK   52  A    between atoms: _117  and  _118
REMARK   53  A    between atoms: _123  and  _124
REMARK   54  A    between atoms: _126  and  _128
REMARK   55  A    between atoms: _128  and  _129
REMARK   56  A    between atoms: _128  and  _131
REMARK   57  A    between atoms: _135  and  _136
REMARK   58  A    between atoms: _141  and  _143
REMARK   59  A    between atoms: _143  and  _144
REMARK   60  A    between atoms: _146  and  _148
REMARK   61  A    between atoms: _148  and  _149
REMARK   62  A    between atoms: _148  and  _151
REMARK   63  A    between atoms: _151  and  _152
REMARK   64  A    between atoms: _155  and  _157
REMARK   65  A    between atoms: _157  and  _158
REMARK   66  A    between atoms: _157  and  _160
REMARK   67  A    between atoms: _160  and  _161
REMARK   68  A    between atoms: _164  and  _166
REMARK   69  A    between atoms: _166  and  _167
REMARK   70  A    between atoms: _166  and  _169
REMARK   71  A    between atoms: _169  and  _170
REMARK   72  A    between atoms: _175  and  _177
REMARK   73  A    between atoms: _177  and  _178
REMARK   74  A    between atoms: _177  and  _180
REMARK   75  A    between atoms: _180  and  _181
REMARK   76  A    between atoms: _184  and  _186
REMARK   77  A    between atoms: _186  and  _187
REMARK   78  A    between atoms: _186  and  _189
REMARK   79  A    between atoms: _192  and  _194
REMARK   80  A    between atoms: _194  and  _195
REMARK   81  A    between atoms: _194  and  _197
REMARK   82  A    between atoms: _197  and  _198
REMARK   83  A    between atoms: _198  and  _199
REMARK   84  A    between atoms: _204  and  _206
REMARK   85  A    between atoms: _206  and  _207
REMARK   86  A    between atoms: _206  and  _209
REMARK   87  A    between atoms: _209  and  _210
REMARK   88  A    between atoms: _213  and  _215
REMARK   89  A    between atoms: _215  and  _216
REMARK   90  A    between atoms: _215  and  _218
REMARK   91  A    between atoms: _218  and  _219
REMARK   92  A    between atoms: _219  and  _220
REMARK   93  A    between atoms: _220  and  _221
REMARK   94  A    between atoms: _230  and  _232
REMARK   95  A    between atoms: _232  and  _233
REMARK   96  A    between atoms: _232  and  _235
REMARK   97  A    between atoms: _235  and  _236
REMARK   98  A    between atoms: _240  and  _241
REMARK   99  A    between atoms: _246  and  _248
REMARK  100  A    between atoms: _248  and  _249
REMARK  101  A    between atoms: _248  and  _251
REMARK  102  A    between atoms: _251  and  _252
REMARK  103  A    between atoms: _252  and  _253
REMARK  104  A    between atoms: _255  and  _257
REMARK  105  A    between atoms: _257  and  _258
REMARK  106  A    between atoms: _261  and  _263
REMARK  107  A    between atoms: _263  and  _264
REMARK  108  A    between atoms: _263  and  _266
REMARK  109  A    between atoms: _266  and  _267
REMARK  110  A    between atoms: _267  and  _268
REMARK  111  A    between atoms: _268  and  _269
REMARK  112  A    between atoms: _269  and  _270
REMARK  113  A    between atoms: _274  and  _276
REMARK  114  A    between atoms: _276  and  _277
REMARK  115  A    between atoms: _276  and  _279
REMARK  116  A    between atoms: _279  and  _280
REMARK  117  A    between atoms: _283  and  _285
REMARK  118  A    between atoms: _285  and  _286
REMARK  119  A    between atoms: _285  and  _288
REMARK  120  A    between atoms: _288  and  _289
REMARK  121  A    between atoms: _291  and  _293
REMARK  122  A    between atoms: _293  and  _294
REMARK  123  A    between atoms: _293  and  _296
REMARK  124  A    between atoms: _296  and  _297
REMARK  125  A    between atoms: _297  and  _412
REMARK  126  A    between atoms: _298  and  _300
REMARK  127  A    between atoms: _300  and  _301
REMARK  128  A    between atoms: _300  and  _303
REMARK  129  A    between atoms: _303  and  _304
REMARK  130  A    between atoms: _304  and  _305
REMARK  131  A    between atoms: _305  and  _306
REMARK  132  A    between atoms: _306  and  _307
REMARK  133  A    between atoms: _311  and  _313
REMARK  134  A    between atoms: _313  and  _314
REMARK  135  A    between atoms: _316  and  _318
REMARK  136  A    between atoms: _318  and  _319
REMARK  137  A    between atoms: _318  and  _321
REMARK  138  A    between atoms: _321  and  _322
REMARK  139  A    between atoms: _325  and  _327
REMARK  140  A    between atoms: _327  and  _328
REMARK  141  A    between atoms: _327  and  _330
REMARK  142  A    between atoms: _330  and  _331
REMARK  143  A    between atoms: _333  and  _335
REMARK  144  A    between atoms: _335  and  _336
REMARK  145  A    between atoms: _338  and  _340
REMARK  146  A    between atoms: _340  and  _341
REMARK  147  A    between atoms: _343  and  _345
REMARK  148  A    between atoms: _345  and  _346
REMARK  149  A    between atoms: _345  and  _348
REMARK  150  A    between atoms: _348  and  _349
REMARK  151  A    between atoms: _352  and  _354
REMARK  152  A    between atoms: _354  and  _355
REMARK  153  A    between atoms: _354  and  _357
REMARK  154  A    between atoms: _360  and  _362
REMARK  155  A    between atoms: _362  and  _363
REMARK  156  A    between atoms: _362  and  _365
REMARK  157  A    between atoms: _365  and  _366
REMARK  158  A    between atoms: _368  and  _370
REMARK  159  A    between atoms: _370  and  _371
REMARK  160  A    between atoms: _370  and  _373
REMARK  161  A    between atoms: _373  and  _374
REMARK  162  A    between atoms: _384  and  _386
REMARK  163  A    between atoms: _386  and  _387
REMARK  164  A    between atoms: _389  and  _391
REMARK  165  A    between atoms: _391  and  _392
REMARK  166  A    between atoms: _391  and  _394
REMARK  167  A    between atoms: _394  and  _395
REMARK  168  A    between atoms: _395  and  _396
REMARK  169  A    between atoms: _401  and  _403
REMARK  170  A    between atoms: _403  and  _404
REMARK  171  A    between atoms: _406  and  _408
REMARK  172  A    between atoms: _408  and  _409
REMARK  173  A    between atoms: _408  and  _411
REMARK  174  A    between atoms: _411  and  _412
REMARK  175  A    between atoms: _413  and  _415
REMARK  176  A    between atoms: _415  and  _416
REMARK  177  A    between atoms: _419  and  _421
REMARK  178  A    between atoms: _421  and  _422
REMARK  179  A    between atoms: _421  and  _424
REMARK  180  A    between atoms: _424  and  _425
REMARK  181  A    between atoms: _428  and  _430
REMARK  182  A    between atoms: _430  and  _431
REMARK  183  A    between atoms: _430  and  _433
REMARK  184  A    between atoms: _433  and  _434
REMARK  185  A    between atoms: _439  and  _441
REMARK  186  A    between atoms: _441  and  _442
REMARK  187  A    between atoms: _441  and  _444
REMARK  188  A    between atoms: _444  and  _445
REMARK  189  A    between atoms: _451  and  _453
REMARK  190  A    between atoms: _453  and  _454
REMARK  191  A    between atoms: _456  and  _458
REMARK  192  A    between atoms: _458  and  _459
REMARK  193  A    between atoms: _458  and  _461
REMARK  194  A    between atoms: _464  and  _466
REMARK  195  A    between atoms: _466  and  _467
REMARK  196  A    between atoms: _466  and  _469
REMARK  197  A    between atoms: _469  and  _470
REMARK  198  A    between atoms: _475  and  _476
REMARK  199  A    between atoms: _478  and  _480
REMARK  200  A    between atoms: _480  and  _481
REMARK  201  A    between atoms: _480  and  _483
REMARK  202  A    between atoms: _483  and  _484
REMARK                            x       y       z     vdW  Elec       q    Type
REMARK                         _______ _______ _______ _____ _____    ______ ____
ROOT
ATOM      1  O   HOH     1      15.056  44.553  25.950  0.00  0.00    +0.000 OA
ENDROOT
TORSDOF 0
REMARK  Name = ../refined-set-2016/4ish/4ish_pocket.pdb
REMARK  202 active torsions:
REMARK  status: ('A' for Active; 'I' for Inactive)
REMARK    1  A    between atoms: _1  and  _5
REMARK    2  A    between atoms: _5  and  _6
REMARK    3  A    between atoms: _5  and  _8
REMARK    4  A    between atoms: _8  and  _9
REMARK    5  A    between atoms: _12  and  _14
REMARK    6  A    between atoms: _14  and  _15
REMARK    7  A    between atoms: _14  and  _17
REMARK    8  A    between atoms: _20  and  _22
REMARK    9  A    between atoms: _22  and  _23
REMARK   10  A    between atoms: _22  and  _25
REMARK   11  A    between atoms: _25  and  _26
REMARK   12  A    between atoms: _26  and  _27
REMARK   13  A    between atoms: _32  and  _34
REMARK   14  A    between atoms: _34  and  _35
REMARK   15  A    between atoms: _34  and  _37
REMARK   16  A    between atoms: _37  and  _38
REMARK   17  A    between atoms: _41  and  _43
REMARK   18  A    between atoms: _43  and  _44
REMARK   19  A    between atoms: _43  and  _46
REMARK   20  A    between atoms: _46  and  _47
REMARK   21  A    between atoms: _47  and  _77
REMARK   22  A    between atoms: _48  and  _50
REMARK   23  A    between atoms: _50  and  _51
REMARK   24  A    between atoms: _54  and  _56
REMARK   25  A    between atoms: _56  and  _57
REMARK   26  A    between atoms: _60  and  _62
REMARK   27  A    between atoms: _62  and  _63
REMARK   28  A    between atoms: _62  and  _65
REMARK   29  A    between atoms: _65  and  _66
REMARK   30  A    between atoms: _71  and  _73
REMARK   31  A    between atoms: _73  and  _74
REMARK   32  A    between atoms: _73  and  _76
REMARK   33  A    between atoms: _76  and  _77
REMARK   34  A    between atoms: _78  and  _80
REMARK   35  A    between atoms: _80  and  _81
REMARK   36  A    between atoms: _80  and  _83
REMARK   37  A    between atoms: _83  and  _84
REMARK   38  A    between atoms: _90  and  _92
REMARK   39  A    between atoms: _92  and  _93
REMARK   40  A    between atoms: _92  and  _95
REMARK   41  A    between atoms: _95  and  _96
REMARK   42  A    between atoms: _99  and  _101
REMARK   43  A    between atoms: _101  and  _102
REMARK   44  A    between atoms: _101  and  _104
REMARK   45  A    between atoms: _104  and  _105
REMARK   46  A    between atoms: _105  and  _106
REMARK   47  A    between atoms: _106  and  _107
REMARK   48  A    between atoms: _107  and  _108
REMARK   49  A    between atoms: _112  and  _114
REMARK   50  A    between atoms: _114  and  _115
REMARK   51  A    between atoms: _114  and  _117
REMARK   52  A    between atoms: _117  and  _118
REMARK   53  A    between atoms: _123  and  _124
REMARK   54  A    between atoms: _126  and  _128
REMARK   55  A    between atoms: _128  and  _129
REMARK   56  A    between atoms: _128  and  _131
REMARK   57  A    between atoms: _135  and  _136
REMARK   58  A    between atoms: _141  and  _143
REMARK   59  A    between atoms: _143  and  _144
REMARK   60  A    between atoms: _146  and  _148
REMARK   61  A    between atoms: _148  and  _149
REMARK   62  A    between atoms: _148  and  _151
REMARK   63  A    between atoms: _151  and  _152
REMARK   64  A    between atoms: _155  and  _157
REMARK   65  A    between atoms: _157  and  _158
REMARK   66  A    between atoms: _157  and  _160
REMARK   67  A    between atoms: _160  and  _161
REMARK   68  A    between atoms: _164  and  _166
REMARK   69  A    between atoms: _166  and  _167
REMARK   70  A    between atoms: _166  and  _169
REMARK   71  A    between atoms: _169  and  _170
REMARK   72  A    between atoms: _175  and  _177
REMARK   73  A    between atoms: _177  and  _178
REMARK   74  A    between atoms: _177  and  _180
REMARK   75  A    between atoms: _180  and  _181
REMARK   76  A    between atoms: _184  and  _186
REMARK   77  A    between atoms: _186  and  _187
REMARK   78  A    between atoms: _186  and  _189
REMARK   79  A    between atoms: _192  and  _194
REMARK   80  A    between atoms: _194  and  _195
REMARK   81  A    between atoms: _194  and  _197
REMARK   82  A    between atoms: _197  and  _198
REMARK   83  A    between atoms: _198  and  _199
REMARK   84  A    between atoms: _204  and  _206
REMARK   85  A    between atoms: _206  and  _207
REMARK   86  A    between atoms: _206  and  _209
REMARK   87  A    between atoms: _209  and  _210
REMARK   88  A    between atoms: _213  and  _215
REMARK   89  A    between atoms: _215  and  _216
REMARK   90  A    between atoms: _215  and  _218
REMARK   91  A    between atoms: _218  and  _219
REMARK   92  A    between atoms: _219  and  _220
REMARK   93  A    between atoms: _220  and  _221
REMARK   94  A    between atoms: _230  and  _232
REMARK   95  A    between atoms: _232  and  _233
REMARK   96  A    between atoms: _232  and  _235
REMARK   97  A    between atoms: _235  and  _236
REMARK   98  A    between atoms: _240  and  _241
REMARK   99  A    between atoms: _246  and  _248
REMARK  100  A    between atoms: _248  and  _249
REMARK  101  A    between atoms: _248  and  _251
REMARK  102  A    between atoms: _251  and  _252
REMARK  103  A    between atoms: _252  and  _253
REMARK  104  A    between atoms: _255  and  _257
REMARK  105  A    between atoms: _257  and  _258
REMARK  106  A    between atoms: _261  and  _263
REMARK  107  A    between atoms: _263  and  _264
REMARK  108  A    between atoms: _263  and  _266
REMARK  109  A    between atoms: _266  and  _267
REMARK  110  A    between atoms: _267  and  _268
REMARK  111  A    between atoms: _268  and  _269
REMARK  112  A    between atoms: _269  and  _270
REMARK  113  A    between atoms: _274  and  _276
REMARK  114  A    between atoms: _276  and  _277
REMARK  115  A    between atoms: _276  and  _279
REMARK  116  A    between atoms: _279  and  _280
REMARK  117  A    between atoms: _283  and  _285
REMARK  118  A    between atoms: _285  and  _286
REMARK  119  A    between atoms: _285  and  _288
REMARK  120  A    between atoms: _288  and  _289
REMARK  121  A    between atoms: _291  and  _293
REMARK  122  A    between atoms: _293  and  _294
REMARK  123  A    between atoms: _293  and  _296
REMARK  124  A    between atoms: _296  and  _297
REMARK  125  A    between atoms: _297  and  _412
REMARK  126  A    between atoms: _298  and  _300
REMARK  127  A    between atoms: _300  and  _301
REMARK  128  A    between atoms: _300  and  _303
REMARK  129  A    between atoms: _303  and  _304
REMARK  130  A    between atoms: _304  and  _305
REMARK  131  A    between atoms: _305  and  _306
REMARK  132  A    between atoms: _306  and  _307
REMARK  133  A    between atoms: _311  and  _313
REMARK  134  A    between atoms: _313  and  _314
REMARK  135  A    between atoms: _316  and  _318
REMARK  136  A    between atoms: _318  and  _319
REMARK  137  A    between atoms: _318  and  _321
REMARK  138  A    between atoms: _321  and  _322
REMARK  139  A    between atoms: _325  and  _327
REMARK  140  A    between atoms: _327  and  _328
REMARK  141  A    between atoms: _327  and  _330
REMARK  142  A    between atoms: _330  and  _331
REMARK  143  A    between atoms: _333  and  _335
REMARK  144  A    between atoms: _335  and  _336
REMARK  145  A    between atoms: _338  and  _340
REMARK  146  A    between atoms: _340  and  _341
REMARK  147  A    between atoms: _343  and  _345
REMARK  148  A    between atoms: _345  and  _346
REMARK  149  A    between atoms: _345  and  _348
REMARK  150  A    between atoms: _348  and  _349
REMARK  151  A    between atoms: _352  and  _354
REMARK  152  A    between atoms: _354  and  _355
REMARK  153  A    between atoms: _354  and  _357
REMARK  154  A    between atoms: _360  and  _362
REMARK  155  A    between atoms: _362  and  _363
REMARK  156  A    between atoms: _362  and  _365
REMARK  157  A    between atoms: _365  and  _366
REMARK  158  A    between atoms: _368  and  _370
REMARK  159  A    between atoms: _370  and  _371
REMARK  160  A    between atoms: _370  and  _373
REMARK  161  A    between atoms: _373  and  _374
REMARK  162  A    between atoms: _384  and  _386
REMARK  163  A    between atoms: _386  and  _387
REMARK  164  A    between atoms: _389  and  _391
REMARK  165  A    between atoms: _391  and  _392
REMARK  166  A    between atoms: _391  and  _394
REMARK  167  A    between atoms: _394  and  _395
REMARK  168  A    between atoms: _395  and  _396
REMARK  169  A    between atoms: _401  and  _403
REMARK  170  A    between atoms: _403  and  _404
REMARK  171  A    between atoms: _406  and  _408
REMARK  172  A    between atoms: _408  and  _409
REMARK  173  A    between atoms: _408  and  _411
REMARK  174  A    between atoms: _411  and  _412
REMARK  175  A    between atoms: _413  and  _415
REMARK  176  A    between atoms: _415  and  _416
REMARK  177  A    between atoms: _419  and  _421
REMARK  178  A    between atoms: _421  and  _422
REMARK  179  A    between atoms: _421  and  _424
REMARK  180  A    between atoms: _424  and  _425
REMARK  181  A    between atoms: _428  and  _430
REMARK  182  A    between atoms: _430  and  _431
REMARK  183  A    between atoms: _430  and  _433
REMARK  184  A    between atoms: _433  and  _434
REMARK  185  A    between atoms: _439  and  _441
REMARK  186  A    between atoms: _441  and  _442
REMARK  187  A    between atoms: _441  and  _444
REMARK  188  A    between atoms: _444  and  _445
REMARK  189  A    between atoms: _451  and  _453
REMARK  190  A    between atoms: _453  and  _454
REMARK  191  A    between atoms: _456  and  _458
REMARK  192  A    between atoms: _458  and  _459
REMARK  193  A    between atoms: _458  and  _461
REMARK  194  A    between atoms: _464  and  _466
REMARK  195  A    between atoms: _466  and  _467
REMARK  196  A    between atoms: _466  and  _469
REMARK  197  A    between atoms: _469  and  _470
REMARK  198  A    between atoms: _475  and  _476
REMARK  199  A    between atoms: _478  and  _480
REMARK  200  A    between atoms: _480  and  _481
REMARK  201  A    between atoms: _480  and  _483
REMARK  202  A    between atoms: _483  and  _484
REMARK                            x       y       z     vdW  Elec       q    Type
REMARK                         _______ _______ _______ _____ _____    ______ ____
ROOT
ATOM      1  O   HOH     1       5.185  31.840  33.875  0.00  0.00    +0.000 OA
ENDROOT
TORSDOF 0
REMARK  Name = ../refined-set-2016/4ish/4ish_pocket.pdb
REMARK  202 active torsions:
REMARK  status: ('A' for Active; 'I' for Inactive)
REMARK    1  A    between atoms: _1  and  _5
REMARK    2  A    between atoms: _5  and  _6
REMARK    3  A    between atoms: _5  and  _8
REMARK    4  A    between atoms: _8  and  _9
REMARK    5  A    between atoms: _12  and  _14
REMARK    6  A    between atoms: _14  and  _15
REMARK    7  A    between atoms: _14  and  _17
REMARK    8  A    between atoms: _20  and  _22
REMARK    9  A    between atoms: _22  and  _23
REMARK   10  A    between atoms: _22  and  _25
REMARK   11  A    between atoms: _25  and  _26
REMARK   12  A    between atoms: _26  and  _27
REMARK   13  A    between atoms: _32  and  _34
REMARK   14  A    between atoms: _34  and  _35
REMARK   15  A    between atoms: _34  and  _37
REMARK   16  A    between atoms: _37  and  _38
REMARK   17  A    between atoms: _41  and  _43
REMARK   18  A    between atoms: _43  and  _44
REMARK   19  A    between atoms: _43  and  _46
REMARK   20  A    between atoms: _46  and  _47
REMARK   21  A    between atoms: _47  and  _77
REMARK   22  A    between atoms: _48  and  _50
REMARK   23  A    between atoms: _50  and  _51
REMARK   24  A    between atoms: _54  and  _56
REMARK   25  A    between atoms: _56  and  _57
REMARK   26  A    between atoms: _60  and  _62
REMARK   27  A    between atoms: _62  and  _63
REMARK   28  A    between atoms: _62  and  _65
REMARK   29  A    between atoms: _65  and  _66
REMARK   30  A    between atoms: _71  and  _73
REMARK   31  A    between atoms: _73  and  _74
REMARK   32  A    between atoms: _73  and  _76
REMARK   33  A    between atoms: _76  and  _77
REMARK   34  A    between atoms: _78  and  _80
REMARK   35  A    between atoms: _80  and  _81
REMARK   36  A    between atoms: _80  and  _83
REMARK   37  A    between atoms: _83  and  _84
REMARK   38  A    between atoms: _90  and  _92
REMARK   39  A    between atoms: _92  and  _93
REMARK   40  A    between atoms: _92  and  _95
REMARK   41  A    between atoms: _95  and  _96
REMARK   42  A    between atoms: _99  and  _101
REMARK   43  A    between atoms: _101  and  _102
REMARK   44  A    between atoms: _101  and  _104
REMARK   45  A    between atoms: _104  and  _105
REMARK   46  A    between atoms: _105  and  _106
REMARK   47  A    between atoms: _106  and  _107
REMARK   48  A    between atoms: _107  and  _108
REMARK   49  A    between atoms: _112  and  _114
REMARK   50  A    between atoms: _114  and  _115
REMARK   51  A    between atoms: _114  and  _117
REMARK   52  A    between atoms: _117  and  _118
REMARK   53  A    between atoms: _123  and  _124
REMARK   54  A    between atoms: _126  and  _128
REMARK   55  A    between atoms: _128  and  _129
REMARK   56  A    between atoms: _128  and  _131
REMARK   57  A    between atoms: _135  and  _136
REMARK   58  A    between atoms: _141  and  _143
REMARK   59  A    between atoms: _143  and  _144
REMARK   60  A    between atoms: _146  and  _148
REMARK   61  A    between atoms: _148  and  _149
REMARK   62  A    between atoms: _148  and  _151
REMARK   63  A    between atoms: _151  and  _152
REMARK   64  A    between atoms: _155  and  _157
REMARK   65  A    between atoms: _157  and  _158
REMARK   66  A    between atoms: _157  and  _160
REMARK   67  A    between atoms: _160  and  _161
REMARK   68  A    between atoms: _164  and  _166
REMARK   69  A    between atoms: _166  and  _167
REMARK   70  A    between atoms: _166  and  _169
REMARK   71  A    between atoms: _169  and  _170
REMARK   72  A    between atoms: _175  and  _177
REMARK   73  A    between atoms: _177  and  _178
REMARK   74  A    between atoms: _177  and  _180
REMARK   75  A    between atoms: _180  and  _181
REMARK   76  A    between atoms: _184  and  _186
REMARK   77  A    between atoms: _186  and  _187
REMARK   78  A    between atoms: _186  and  _189
REMARK   79  A    between atoms: _192  and  _194
REMARK   80  A    between atoms: _194  and  _195
REMARK   81  A    between atoms: _194  and  _197
REMARK   82  A    between atoms: _197  and  _198
REMARK   83  A    between atoms: _198  and  _199
REMARK   84  A    between atoms: _204  and  _206
REMARK   85  A    between atoms: _206  and  _207
REMARK   86  A    between atoms: _206  and  _209
REMARK   87  A    between atoms: _209  and  _210
REMARK   88  A    between atoms: _213  and  _215
REMARK   89  A    between atoms: _215  and  _216
REMARK   90  A    between atoms: _215  and  _218
REMARK   91  A    between atoms: _218  and  _219
REMARK   92  A    between atoms: _219  and  _220
REMARK   93  A    between atoms: _220  and  _221
REMARK   94  A    between atoms: _230  and  _232
REMARK   95  A    between atoms: _232  and  _233
REMARK   96  A    between atoms: _232  and  _235
REMARK   97  A    between atoms: _235  and  _236
REMARK   98  A    between atoms: _240  and  _241
REMARK   99  A    between atoms: _246  and  _248
REMARK  100  A    between atoms: _248  and  _249
REMARK  101  A    between atoms: _248  and  _251
REMARK  102  A    between atoms: _251  and  _252
REMARK  103  A    between atoms: _252  and  _253
REMARK  104  A    between atoms: _255  and  _257
REMARK  105  A    between atoms: _257  and  _258
REMARK  106  A    between atoms: _261  and  _263
REMARK  107  A    between atoms: _263  and  _264
REMARK  108  A    between atoms: _263  and  _266
REMARK  109  A    between atoms: _266  and  _267
REMARK  110  A    between atoms: _267  and  _268
REMARK  111  A    between atoms: _268  and  _269
REMARK  112  A    between atoms: _269  and  _270
REMARK  113  A    between atoms: _274  and  _276
REMARK  114  A    between atoms: _276  and  _277
REMARK  115  A    between atoms: _276  and  _279
REMARK  116  A    between atoms: _279  and  _280
REMARK  117  A    between atoms: _283  and  _285
REMARK  118  A    between atoms: _285  and  _286
REMARK  119  A    between atoms: _285  and  _288
REMARK  120  A    between atoms: _288  and  _289
REMARK  121  A    between atoms: _291  and  _293
REMARK  122  A    between atoms: _293  and  _294
REMARK  123  A    between atoms: _293  and  _296
REMARK  124  A    between atoms: _296  and  _297
REMARK  125  A    between atoms: _297  and  _412
REMARK  126  A    between atoms: _298  and  _300
REMARK  127  A    between atoms: _300  and  _301
REMARK  128  A    between atoms: _300  and  _303
REMARK  129  A    between atoms: _303  and  _304
REMARK  130  A    between atoms: _304  and  _305
REMARK  131  A    between atoms: _305  and  _306
REMARK  132  A    between atoms: _306  and  _307
REMARK  133  A    between atoms: _311  and  _313
REMARK  134  A    between atoms: _313  and  _314
REMARK  135  A    between atoms: _316  and  _318
REMARK  136  A    between atoms: _318  and  _319
REMARK  137  A    between atoms: _318  and  _321
REMARK  138  A    between atoms: _321  and  _322
REMARK  139  A    between atoms: _325  and  _327
REMARK  140  A    between atoms: _327  and  _328
REMARK  141  A    between atoms: _327  and  _330
REMARK  142  A    between atoms: _330  and  _331
REMARK  143  A    between atoms: _333  and  _335
REMARK  144  A    between atoms: _335  and  _336
REMARK  145  A    between atoms: _338  and  _340
REMARK  146  A    between atoms: _340  and  _341
REMARK  147  A    between atoms: _343  and  _345
REMARK  148  A    between atoms: _345  and  _346
REMARK  149  A    between atoms: _345  and  _348
REMARK  150  A    between atoms: _348  and  _349
REMARK  151  A    between atoms: _352  and  _354
REMARK  152  A    between atoms: _354  and  _355
REMARK  153  A    between atoms: _354  and  _357
REMARK  154  A    between atoms: _360  and  _362
REMARK  155  A    between atoms: _362  and  _363
REMARK  156  A    between atoms: _362  and  _365
REMARK  157  A    between atoms: _365  and  _366
REMARK  158  A    between atoms: _368  and  _370
REMARK  159  A    between atoms: _370  and  _371
REMARK  160  A    between atoms: _370  and  _373
REMARK  161  A    between atoms: _373  and  _374
REMARK  162  A    between atoms: _384  and  _386
REMARK  163  A    between atoms: _386  and  _387
REMARK  164  A    between atoms: _389  and  _391
REMARK  165  A    between atoms: _391  and  _392
REMARK  166  A    between atoms: _391  and  _394
REMARK  167  A    between atoms: _394  and  _395
REMARK  168  A    between atoms: _395  and  _396
REMARK  169  A    between atoms: _401  and  _403
REMARK  170  A    between atoms: _403  and  _404
REMARK  171  A    between atoms: _406  and  _408
REMARK  172  A    between atoms: _408  and  _409
REMARK  173  A    between atoms: _408  and  _411
REMARK  174  A    between atoms: _411  and  _412
REMARK  175  A    between atoms: _413  and  _415
REMARK  176  A    between atoms: _415  and  _416
REMARK  177  A    between atoms: _419  and  _421
REMARK  178  A    between atoms: _421  and  _422
REMARK  179  A    between atoms: _421  and  _424
REMARK  180  A    between atoms: _424  and  _425
REMARK  181  A    between atoms: _428  and  _430
REMARK  182  A    between atoms: _430  and  _431
REMARK  183  A    between atoms: _430  and  _433
REMARK  184  A    between atoms: _433  and  _434
REMARK  185  A    between atoms: _439  and  _441
REMARK  186  A    between atoms: _441  and  _442
REMARK  187  A    between atoms: _441  and  _444
REMARK  188  A    between atoms: _444  and  _445
REMARK  189  A    between atoms: _451  and  _453
REMARK  190  A    between atoms: _453  and  _454
REMARK  191  A    between atoms: _456  and  _458
REMARK  192  A    between atoms: _458  and  _459
REMARK  193  A    between atoms: _458  and  _461
REMARK  194  A    between atoms: _464  and  _466
REMARK  195  A    between atoms: _466  and  _467
REMARK  196  A    between atoms: _466  and  _469
REMARK  197  A    between atoms: _469  and  _470
REMARK  198  A    between atoms: _475  and  _476
REMARK  199  A    between atoms: _478  and  _480
REMARK  200  A    between atoms: _480  and  _481
REMARK  201  A    between atoms: _480  and  _483
REMARK  202  A    between atoms: _483  and  _484
REMARK                            x       y       z     vdW  Elec       q    Type
REMARK                         _______ _______ _______ _____ _____    ______ ____
ROOT
ATOM      1  O   HOH     1      10.864  31.513  35.872  0.00  0.00    +0.000 OA
ENDROOT
TORSDOF 0
REMARK  Name = ../refined-set-2016/4ish/4ish_pocket.pdb
REMARK  202 active torsions:
REMARK  status: ('A' for Active; 'I' for Inactive)
REMARK    1  A    between atoms: _1  and  _5
REMARK    2  A    between atoms: _5  and  _6
REMARK    3  A    between atoms: _5  and  _8
REMARK    4  A    between atoms: _8  and  _9
REMARK    5  A    between atoms: _12  and  _14
REMARK    6  A    between atoms: _14  and  _15
REMARK    7  A    between atoms: _14  and  _17
REMARK    8  A    between atoms: _20  and  _22
REMARK    9  A    between atoms: _22  and  _23
REMARK   10  A    between atoms: _22  and  _25
REMARK   11  A    between atoms: _25  and  _26
REMARK   12  A    between atoms: _26  and  _27
REMARK   13  A    between atoms: _32  and  _34
REMARK   14  A    between atoms: _34  and  _35
REMARK   15  A    between atoms: _34  and  _37
REMARK   16  A    between atoms: _37  and  _38
REMARK   17  A    between atoms: _41  and  _43
REMARK   18  A    between atoms: _43  and  _44
REMARK   19  A    between atoms: _43  and  _46
REMARK   20  A    between atoms: _46  and  _47
REMARK   21  A    between atoms: _47  and  _77
REMARK   22  A    between atoms: _48  and  _50
REMARK   23  A    between atoms: _50  and  _51
REMARK   24  A    between atoms: _54  and  _56
REMARK   25  A    between atoms: _56  and  _57
REMARK   26  A    between atoms: _60  and  _62
REMARK   27  A    between atoms: _62  and  _63
REMARK   28  A    between atoms: _62  and  _65
REMARK   29  A    between atoms: _65  and  _66
REMARK   30  A    between atoms: _71  and  _73
REMARK   31  A    between atoms: _73  and  _74
REMARK   32  A    between atoms: _73  and  _76
REMARK   33  A    between atoms: _76  and  _77
REMARK   34  A    between atoms: _78  and  _80
REMARK   35  A    between atoms: _80  and  _81
REMARK   36  A    between atoms: _80  and  _83
REMARK   37  A    between atoms: _83  and  _84
REMARK   38  A    between atoms: _90  and  _92
REMARK   39  A    between atoms: _92  and  _93
REMARK   40  A    between atoms: _92  and  _95
REMARK   41  A    between atoms: _95  and  _96
REMARK   42  A    between atoms: _99  and  _101
REMARK   43  A    between atoms: _101  and  _102
REMARK   44  A    between atoms: _101  and  _104
REMARK   45  A    between atoms: _104  and  _105
REMARK   46  A    between atoms: _105  and  _106
REMARK   47  A    between atoms: _106  and  _107
REMARK   48  A    between atoms: _107  and  _108
REMARK   49  A    between atoms: _112  and  _114
REMARK   50  A    between atoms: _114  and  _115
REMARK   51  A    between atoms: _114  and  _117
REMARK   52  A    between atoms: _117  and  _118
REMARK   53  A    between atoms: _123  and  _124
REMARK   54  A    between atoms: _126  and  _128
REMARK   55  A    between atoms: _128  and  _129
REMARK   56  A    between atoms: _128  and  _131
REMARK   57  A    between atoms: _135  and  _136
REMARK   58  A    between atoms: _141  and  _143
REMARK   59  A    between atoms: _143  and  _144
REMARK   60  A    between atoms: _146  and  _148
REMARK   61  A    between atoms: _148  and  _149
REMARK   62  A    between atoms: _148  and  _151
REMARK   63  A    between atoms: _151  and  _152
REMARK   64  A    between atoms: _155  and  _157
REMARK   65  A    between atoms: _157  and  _158
REMARK   66  A    between atoms: _157  and  _160
REMARK   67  A    between atoms: _160  and  _161
REMARK   68  A    between atoms: _164  and  _166
REMARK   69  A    between atoms: _166  and  _167
REMARK   70  A    between atoms: _166  and  _169
REMARK   71  A    between atoms: _169  and  _170
REMARK   72  A    between atoms: _175  and  _177
REMARK   73  A    between atoms: _177  and  _178
REMARK   74  A    between atoms: _177  and  _180
REMARK   75  A    between atoms: _180  and  _181
REMARK   76  A    between atoms: _184  and  _186
REMARK   77  A    between atoms: _186  and  _187
REMARK   78  A    between atoms: _186  and  _189
REMARK   79  A    between atoms: _192  and  _194
REMARK   80  A    between atoms: _194  and  _195
REMARK   81  A    between atoms: _194  and  _197
REMARK   82  A    between atoms: _197  and  _198
REMARK   83  A    between atoms: _198  and  _199
REMARK   84  A    between atoms: _204  and  _206
REMARK   85  A    between atoms: _206  and  _207
REMARK   86  A    between atoms: _206  and  _209
REMARK   87  A    between atoms: _209  and  _210
REMARK   88  A    between atoms: _213  and  _215
REMARK   89  A    between atoms: _215  and  _216
REMARK   90  A    between atoms: _215  and  _218
REMARK   91  A    between atoms: _218  and  _219
REMARK   92  A    between atoms: _219  and  _220
REMARK   93  A    between atoms: _220  and  _221
REMARK   94  A    between atoms: _230  and  _232
REMARK   95  A    between atoms: _232  and  _233
REMARK   96  A    between atoms: _232  and  _235
REMARK   97  A    between atoms: _235  and  _236
REMARK   98  A    between atoms: _240  and  _241
REMARK   99  A    between atoms: _246  and  _248
REMARK  100  A    between atoms: _248  and  _249
REMARK  101  A    between atoms: _248  and  _251
REMARK  102  A    between atoms: _251  and  _252
REMARK  103  A    between atoms: _252  and  _253
REMARK  104  A    between atoms: _255  and  _257
REMARK  105  A    between atoms: _257  and  _258
REMARK  106  A    between atoms: _261  and  _263
REMARK  107  A    between atoms: _263  and  _264
REMARK  108  A    between atoms: _263  and  _266
REMARK  109  A    between atoms: _266  and  _267
REMARK  110  A    between atoms: _267  and  _268
REMARK  111  A    between atoms: _268  and  _269
REMARK  112  A    between atoms: _269  and  _270
REMARK  113  A    between atoms: _274  and  _276
REMARK  114  A    between atoms: _276  and  _277
REMARK  115  A    between atoms: _276  and  _279
REMARK  116  A    between atoms: _279  and  _280
REMARK  117  A    between atoms: _283  and  _285
REMARK  118  A    between atoms: _285  and  _286
REMARK  119  A    between atoms: _285  and  _288
REMARK  120  A    between atoms: _288  and  _289
REMARK  121  A    between atoms: _291  and  _293
REMARK  122  A    between atoms: _293  and  _294
REMARK  123  A    between atoms: _293  and  _296
REMARK  124  A    between atoms: _296  and  _297
REMARK  125  A    between atoms: _297  and  _412
REMARK  126  A    between atoms: _298  and  _300
REMARK  127  A    between atoms: _300  and  _301
REMARK  128  A    between atoms: _300  and  _303
REMARK  129  A    between atoms: _303  and  _304
REMARK  130  A    between atoms: _304  and  _305
REMARK  131  A    between atoms: _305  and  _306
REMARK  132  A    between atoms: _306  and  _307
REMARK  133  A    between atoms: _311  and  _313
REMARK  134  A    between atoms: _313  and  _314
REMARK  135  A    between atoms: _316  and  _318
REMARK  136  A    between atoms: _318  and  _319
REMARK  137  A    between atoms: _318  and  _321
REMARK  138  A    between atoms: _321  and  _322
REMARK  139  A    between atoms: _325  and  _327
REMARK  140  A    between atoms: _327  and  _328
REMARK  141  A    between atoms: _327  and  _330
REMARK  142  A    between atoms: _330  and  _331
REMARK  143  A    between atoms: _333  and  _335
REMARK  144  A    between atoms: _335  and  _336
REMARK  145  A    between atoms: _338  and  _340
REMARK  146  A    between atoms: _340  and  _341
REMARK  147  A    between atoms: _343  and  _345
REMARK  148  A    between atoms: _345  and  _346
REMARK  149  A    between atoms: _345  and  _348
REMARK  150  A    between atoms: _348  and  _349
REMARK  151  A    between atoms: _352  and  _354
REMARK  152  A    between atoms: _354  and  _355
REMARK  153  A    between atoms: _354  and  _357
REMARK  154  A    between atoms: _360  and  _362
REMARK  155  A    between atoms: _362  and  _363
REMARK  156  A    between atoms: _362  and  _365
REMARK  157  A    between atoms: _365  and  _366
REMARK  158  A    between atoms: _368  and  _370
REMARK  159  A    between atoms: _370  and  _371
REMARK  160  A    between atoms: _370  and  _373
REMARK  161  A    between atoms: _373  and  _374
REMARK  162  A    between atoms: _384  and  _386
REMARK  163  A    between atoms: _386  and  _387
REMARK  164  A    between atoms: _389  and  _391
REMARK  165  A    between atoms: _391  and  _392
REMARK  166  A    between atoms: _391  and  _394
REMARK  167  A    between atoms: _394  and  _395
REMARK  168  A    between atoms: _395  and  _396
REMARK  169  A    between atoms: _401  and  _403
REMARK  170  A    between atoms: _403  and  _404
REMARK  171  A    between atoms: _406  and  _408
REMARK  172  A    between atoms: _408  and  _409
REMARK  173  A    between atoms: _408  and  _411
REMARK  174  A    between atoms: _411  and  _412
REMARK  175  A    between atoms: _413  and  _415
REMARK  176  A    between atoms: _415  and  _416
REMARK  177  A    between atoms: _419  and  _421
REMARK  178  A    between atoms: _421  and  _422
REMARK  179  A    between atoms: _421  and  _424
REMARK  180  A    between atoms: _424  and  _425
REMARK  181  A    between atoms: _428  and  _430
REMARK  182  A    between atoms: _430  and  _431
REMARK  183  A    between atoms: _430  and  _433
REMARK  184  A    between atoms: _433  and  _434
REMARK  185  A    between atoms: _439  and  _441
REMARK  186  A    between atoms: _441  and  _442
REMARK  187  A    between atoms: _441  and  _444
REMARK  188  A    between atoms: _444  and  _445
REMARK  189  A    between atoms: _451  and  _453
REMARK  190  A    between atoms: _453  and  _454
REMARK  191  A    between atoms: _456  and  _458
REMARK  192  A    between atoms: _458  and  _459
REMARK  193  A    between atoms: _458  and  _461
REMARK  194  A    between atoms: _464  and  _466
REMARK  195  A    between atoms: _466  and  _467
REMARK  196  A    between atoms: _466  and  _469
REMARK  197  A    between atoms: _469  and  _470
REMARK  198  A    between atoms: _475  and  _476
REMARK  199  A    between atoms: _478  and  _480
REMARK  200  A    between atoms: _480  and  _481
REMARK  201  A    between atoms: _480  and  _483
REMARK  202  A    between atoms: _483  and  _484
REMARK                            x       y       z     vdW  Elec       q    Type
REMARK                         _______ _______ _______ _____ _____    ______ ____
ROOT
ATOM      1  O   HOH     1       9.039  42.344  32.443  0.00  0.00    +0.000 OA
ENDROOT
TORSDOF 0
REMARK  Name = ../refined-set-2016/4ish/4ish_pocket.pdb
REMARK  202 active torsions:
REMARK  status: ('A' for Active; 'I' for Inactive)
REMARK    1  A    between atoms: _1  and  _5
REMARK    2  A    between atoms: _5  and  _6
REMARK    3  A    between atoms: _5  and  _8
REMARK    4  A    between atoms: _8  and  _9
REMARK    5  A    between atoms: _12  and  _14
REMARK    6  A    between atoms: _14  and  _15
REMARK    7  A    between atoms: _14  and  _17
REMARK    8  A    between atoms: _20  and  _22
REMARK    9  A    between atoms: _22  and  _23
REMARK   10  A    between atoms: _22  and  _25
REMARK   11  A    between atoms: _25  and  _26
REMARK   12  A    between atoms: _26  and  _27
REMARK   13  A    between atoms: _32  and  _34
REMARK   14  A    between atoms: _34  and  _35
REMARK   15  A    between atoms: _34  and  _37
REMARK   16  A    between atoms: _37  and  _38
REMARK   17  A    between atoms: _41  and  _43
REMARK   18  A    between atoms: _43  and  _44
REMARK   19  A    between atoms: _43  and  _46
REMARK   20  A    between atoms: _46  and  _47
REMARK   21  A    between atoms: _47  and  _77
REMARK   22  A    between atoms: _48  and  _50
REMARK   23  A    between atoms: _50  and  _51
REMARK   24  A    between atoms: _54  and  _56
REMARK   25  A    between atoms: _56  and  _57
REMARK   26  A    between atoms: _60  and  _62
REMARK   27  A    between atoms: _62  and  _63
REMARK   28  A    between atoms: _62  and  _65
REMARK   29  A    between atoms: _65  and  _66
REMARK   30  A    between atoms: _71  and  _73
REMARK   31  A    between atoms: _73  and  _74
REMARK   32  A    between atoms: _73  and  _76
REMARK   33  A    between atoms: _76  and  _77
REMARK   34  A    between atoms: _78  and  _80
REMARK   35  A    between atoms: _80  and  _81
REMARK   36  A    between atoms: _80  and  _83
REMARK   37  A    between atoms: _83  and  _84
REMARK   38  A    between atoms: _90  and  _92
REMARK   39  A    between atoms: _92  and  _93
REMARK   40  A    between atoms: _92  and  _95
REMARK   41  A    between atoms: _95  and  _96
REMARK   42  A    between atoms: _99  and  _101
REMARK   43  A    between atoms: _101  and  _102
REMARK   44  A    between atoms: _101  and  _104
REMARK   45  A    between atoms: _104  and  _105
REMARK   46  A    between atoms: _105  and  _106
REMARK   47  A    between atoms: _106  and  _107
REMARK   48  A    between atoms: _107  and  _108
REMARK   49  A    between atoms: _112  and  _114
REMARK   50  A    between atoms: _114  and  _115
REMARK   51  A    between atoms: _114  and  _117
REMARK   52  A    between atoms: _117  and  _118
REMARK   53  A    between atoms: _123  and  _124
REMARK   54  A    between atoms: _126  and  _128
REMARK   55  A    between atoms: _128  and  _129
REMARK   56  A    between atoms: _128  and  _131
REMARK   57  A    between atoms: _135  and  _136
REMARK   58  A    between atoms: _141  and  _143
REMARK   59  A    between atoms: _143  and  _144
REMARK   60  A    between atoms: _146  and  _148
REMARK   61  A    between atoms: _148  and  _149
REMARK   62  A    between atoms: _148  and  _151
REMARK   63  A    between atoms: _151  and  _152
REMARK   64  A    between atoms: _155  and  _157
REMARK   65  A    between atoms: _157  and  _158
REMARK   66  A    between atoms: _157  and  _160
REMARK   67  A    between atoms: _160  and  _161
REMARK   68  A    between atoms: _164  and  _166
REMARK   69  A    between atoms: _166  and  _167
REMARK   70  A    between atoms: _166  and  _169
REMARK   71  A    between atoms: _169  and  _170
REMARK   72  A    between atoms: _175  and  _177
REMARK   73  A    between atoms: _177  and  _178
REMARK   74  A    between atoms: _177  and  _180
REMARK   75  A    between atoms: _180  and  _181
REMARK   76  A    between atoms: _184  and  _186
REMARK   77  A    between atoms: _186  and  _187
REMARK   78  A    between atoms: _186  and  _189
REMARK   79  A    between atoms: _192  and  _194
REMARK   80  A    between atoms: _194  and  _195
REMARK   81  A    between atoms: _194  and  _197
REMARK   82  A    between atoms: _197  and  _198
REMARK   83  A    between atoms: _198  and  _199
REMARK   84  A    between atoms: _204  and  _206
REMARK   85  A    between atoms: _206  and  _207
REMARK   86  A    between atoms: _206  and  _209
REMARK   87  A    between atoms: _209  and  _210
REMARK   88  A    between atoms: _213  and  _215
REMARK   89  A    between atoms: _215  and  _216
REMARK   90  A    between atoms: _215  and  _218
REMARK   91  A    between atoms: _218  and  _219
REMARK   92  A    between atoms: _219  and  _220
REMARK   93  A    between atoms: _220  and  _221
REMARK   94  A    between atoms: _230  and  _232
REMARK   95  A    between atoms: _232  and  _233
REMARK   96  A    between atoms: _232  and  _235
REMARK   97  A    between atoms: _235  and  _236
REMARK   98  A    between atoms: _240  and  _241
REMARK   99  A    between atoms: _246  and  _248
REMARK  100  A    between atoms: _248  and  _249
REMARK  101  A    between atoms: _248  and  _251
REMARK  102  A    between atoms: _251  and  _252
REMARK  103  A    between atoms: _252  and  _253
REMARK  104  A    between atoms: _255  and  _257
REMARK  105  A    between atoms: _257  and  _258
REMARK  106  A    between atoms: _261  and  _263
REMARK  107  A    between atoms: _263  and  _264
REMARK  108  A    between atoms: _263  and  _266
REMARK  109  A    between atoms: _266  and  _267
REMARK  110  A    between atoms: _267  and  _268
REMARK  111  A    between atoms: _268  and  _269
REMARK  112  A    between atoms: _269  and  _270
REMARK  113  A    between atoms: _274  and  _276
REMARK  114  A    between atoms: _276  and  _277
REMARK  115  A    between atoms: _276  and  _279
REMARK  116  A    between atoms: _279  and  _280
REMARK  117  A    between atoms: _283  and  _285
REMARK  118  A    between atoms: _285  and  _286
REMARK  119  A    between atoms: _285  and  _288
REMARK  120  A    between atoms: _288  and  _289
REMARK  121  A    between atoms: _291  and  _293
REMARK  122  A    between atoms: _293  and  _294
REMARK  123  A    between atoms: _293  and  _296
REMARK  124  A    between atoms: _296  and  _297
REMARK  125  A    between atoms: _297  and  _412
REMARK  126  A    between atoms: _298  and  _300
REMARK  127  A    between atoms: _300  and  _301
REMARK  128  A    between atoms: _300  and  _303
REMARK  129  A    between atoms: _303  and  _304
REMARK  130  A    between atoms: _304  and  _305
REMARK  131  A    between atoms: _305  and  _306
REMARK  132  A    between atoms: _306  and  _307
REMARK  133  A    between atoms: _311  and  _313
REMARK  134  A    between atoms: _313  and  _314
REMARK  135  A    between atoms: _316  and  _318
REMARK  136  A    between atoms: _318  and  _319
REMARK  137  A    between atoms: _318  and  _321
REMARK  138  A    between atoms: _321  and  _322
REMARK  139  A    between atoms: _325  and  _327
REMARK  140  A    between atoms: _327  and  _328
REMARK  141  A    between atoms: _327  and  _330
REMARK  142  A    between atoms: _330  and  _331
REMARK  143  A    between atoms: _333  and  _335
REMARK  144  A    between atoms: _335  and  _336
REMARK  145  A    between atoms: _338  and  _340
REMARK  146  A    between atoms: _340  and  _341
REMARK  147  A    between atoms: _343  and  _345
REMARK  148  A    between atoms: _345  and  _346
REMARK  149  A    between atoms: _345  and  _348
REMARK  150  A    between atoms: _348  and  _349
REMARK  151  A    between atoms: _352  and  _354
REMARK  152  A    between atoms: _354  and  _355
REMARK  153  A    between atoms: _354  and  _357
REMARK  154  A    between atoms: _360  and  _362
REMARK  155  A    between atoms: _362  and  _363
REMARK  156  A    between atoms: _362  and  _365
REMARK  157  A    between atoms: _365  and  _366
REMARK  158  A    between atoms: _368  and  _370
REMARK  159  A    between atoms: _370  and  _371
REMARK  160  A    between atoms: _370  and  _373
REMARK  161  A    between atoms: _373  and  _374
REMARK  162  A    between atoms: _384  and  _386
REMARK  163  A    between atoms: _386  and  _387
REMARK  164  A    between atoms: _389  and  _391
REMARK  165  A    between atoms: _391  and  _392
REMARK  166  A    between atoms: _391  and  _394
REMARK  167  A    between atoms: _394  and  _395
REMARK  168  A    between atoms: _395  and  _396
REMARK  169  A    between atoms: _401  and  _403
REMARK  170  A    between atoms: _403  and  _404
REMARK  171  A    between atoms: _406  and  _408
REMARK  172  A    between atoms: _408  and  _409
REMARK  173  A    between atoms: _408  and  _411
REMARK  174  A    between atoms: _411  and  _412
REMARK  175  A    between atoms: _413  and  _415
REMARK  176  A    between atoms: _415  and  _416
REMARK  177  A    between atoms: _419  and  _421
REMARK  178  A    between atoms: _421  and  _422
REMARK  179  A    between atoms: _421  and  _424
REMARK  180  A    between atoms: _424  and  _425
REMARK  181  A    between atoms: _428  and  _430
REMARK  182  A    between atoms: _430  and  _431
REMARK  183  A    between atoms: _430  and  _433
REMARK  184  A    between atoms: _433  and  _434
REMARK  185  A    between atoms: _439  and  _441
REMARK  186  A    between atoms: _441  and  _442
REMARK  187  A    between atoms: _441  and  _444
REMARK  188  A    between atoms: _444  and  _445
REMARK  189  A    between atoms: _451  and  _453
REMARK  190  A    between atoms: _453  and  _454
REMARK  191  A    between atoms: _456  and  _458
REMARK  192  A    between atoms: _458  and  _459
REMARK  193  A    between atoms: _458  and  _461
REMARK  194  A    between atoms: _464  and  _466
REMARK  195  A    between atoms: _466  and  _467
REMARK  196  A    between atoms: _466  and  _469
REMARK  197  A    between atoms: _469  and  _470
REMARK  198  A    between atoms: _475  and  _476
REMARK  199  A    between atoms: _478  and  _480
REMARK  200  A    between atoms: _480  and  _481
REMARK  201  A    between atoms: _480  and  _483
REMARK  202  A    between atoms: _483  and  _484
REMARK                            x       y       z     vdW  Elec       q    Type
REMARK                         _______ _______ _______ _____ _____    ______ ____
ROOT
ATOM      1  O   HOH     1      12.625  45.805  27.030  0.00  0.00    +0.000 OA
ENDROOT
TORSDOF 0
REMARK  Name = ../refined-set-2016/4ish/4ish_pocket.pdb
REMARK  202 active torsions:
REMARK  status: ('A' for Active; 'I' for Inactive)
REMARK    1  A    between atoms: _1  and  _5
REMARK    2  A    between atoms: _5  and  _6
REMARK    3  A    between atoms: _5  and  _8
REMARK    4  A    between atoms: _8  and  _9
REMARK    5  A    between atoms: _12  and  _14
REMARK    6  A    between atoms: _14  and  _15
REMARK    7  A    between atoms: _14  and  _17
REMARK    8  A    between atoms: _20  and  _22
REMARK    9  A    between atoms: _22  and  _23
REMARK   10  A    between atoms: _22  and  _25
REMARK   11  A    between atoms: _25  and  _26
REMARK   12  A    between atoms: _26  and  _27
REMARK   13  A    between atoms: _32  and  _34
REMARK   14  A    between atoms: _34  and  _35
REMARK   15  A    between atoms: _34  and  _37
REMARK   16  A    between atoms: _37  and  _38
REMARK   17  A    between atoms: _41  and  _43
REMARK   18  A    between atoms: _43  and  _44
REMARK   19  A    between atoms: _43  and  _46
REMARK   20  A    between atoms: _46  and  _47
REMARK   21  A    between atoms: _47  and  _77
REMARK   22  A    between atoms: _48  and  _50
REMARK   23  A    between atoms: _50  and  _51
REMARK   24  A    between atoms: _54  and  _56
REMARK   25  A    between atoms: _56  and  _57
REMARK   26  A    between atoms: _60  and  _62
REMARK   27  A    between atoms: _62  and  _63
REMARK   28  A    between atoms: _62  and  _65
REMARK   29  A    between atoms: _65  and  _66
REMARK   30  A    between atoms: _71  and  _73
REMARK   31  A    between atoms: _73  and  _74
REMARK   32  A    between atoms: _73  and  _76
REMARK   33  A    between atoms: _76  and  _77
REMARK   34  A    between atoms: _78  and  _80
REMARK   35  A    between atoms: _80  and  _81
REMARK   36  A    between atoms: _80  and  _83
REMARK   37  A    between atoms: _83  and  _84
REMARK   38  A    between atoms: _90  and  _92
REMARK   39  A    between atoms: _92  and  _93
REMARK   40  A    between atoms: _92  and  _95
REMARK   41  A    between atoms: _95  and  _96
REMARK   42  A    between atoms: _99  and  _101
REMARK   43  A    between atoms: _101  and  _102
REMARK   44  A    between atoms: _101  and  _104
REMARK   45  A    between atoms: _104  and  _105
REMARK   46  A    between atoms: _105  and  _106
REMARK   47  A    between atoms: _106  and  _107
REMARK   48  A    between atoms: _107  and  _108
REMARK   49  A    between atoms: _112  and  _114
REMARK   50  A    between atoms: _114  and  _115
REMARK   51  A    between atoms: _114  and  _117
REMARK   52  A    between atoms: _117  and  _118
REMARK   53  A    between atoms: _123  and  _124
REMARK   54  A    between atoms: _126  and  _128
REMARK   55  A    between atoms: _128  and  _129
REMARK   56  A    between atoms: _128  and  _131
REMARK   57  A    between atoms: _135  and  _136
REMARK   58  A    between atoms: _141  and  _143
REMARK   59  A    between atoms: _143  and  _144
REMARK   60  A    between atoms: _146  and  _148
REMARK   61  A    between atoms: _148  and  _149
REMARK   62  A    between atoms: _148  and  _151
REMARK   63  A    between atoms: _151  and  _152
REMARK   64  A    between atoms: _155  and  _157
REMARK   65  A    between atoms: _157  and  _158
REMARK   66  A    between atoms: _157  and  _160
REMARK   67  A    between atoms: _160  and  _161
REMARK   68  A    between atoms: _164  and  _166
REMARK   69  A    between atoms: _166  and  _167
REMARK   70  A    between atoms: _166  and  _169
REMARK   71  A    between atoms: _169  and  _170
REMARK   72  A    between atoms: _175  and  _177
REMARK   73  A    between atoms: _177  and  _178
REMARK   74  A    between atoms: _177  and  _180
REMARK   75  A    between atoms: _180  and  _181
REMARK   76  A    between atoms: _184  and  _186
REMARK   77  A    between atoms: _186  and  _187
REMARK   78  A    between atoms: _186  and  _189
REMARK   79  A    between atoms: _192  and  _194
REMARK   80  A    between atoms: _194  and  _195
REMARK   81  A    between atoms: _194  and  _197
REMARK   82  A    between atoms: _197  and  _198
REMARK   83  A    between atoms: _198  and  _199
REMARK   84  A    between atoms: _204  and  _206
REMARK   85  A    between atoms: _206  and  _207
REMARK   86  A    between atoms: _206  and  _209
REMARK   87  A    between atoms: _209  and  _210
REMARK   88  A    between atoms: _213  and  _215
REMARK   89  A    between atoms: _215  and  _216
REMARK   90  A    between atoms: _215  and  _218
REMARK   91  A    between atoms: _218  and  _219
REMARK   92  A    between atoms: _219  and  _220
REMARK   93  A    between atoms: _220  and  _221
REMARK   94  A    between atoms: _230  and  _232
REMARK   95  A    between atoms: _232  and  _233
REMARK   96  A    between atoms: _232  and  _235
REMARK   97  A    between atoms: _235  and  _236
REMARK   98  A    between atoms: _240  and  _241
REMARK   99  A    between atoms: _246  and  _248
REMARK  100  A    between atoms: _248  and  _249
REMARK  101  A    between atoms: _248  and  _251
REMARK  102  A    between atoms: _251  and  _252
REMARK  103  A    between atoms: _252  and  _253
REMARK  104  A    between atoms: _255  and  _257
REMARK  105  A    between atoms: _257  and  _258
REMARK  106  A    between atoms: _261  and  _263
REMARK  107  A    between atoms: _263  and  _264
REMARK  108  A    between atoms: _263  and  _266
REMARK  109  A    between atoms: _266  and  _267
REMARK  110  A    between atoms: _267  and  _268
REMARK  111  A    between atoms: _268  and  _269
REMARK  112  A    between atoms: _269  and  _270
REMARK  113  A    between atoms: _274  and  _276
REMARK  114  A    between atoms: _276  and  _277
REMARK  115  A    between atoms: _276  and  _279
REMARK  116  A    between atoms: _279  and  _280
REMARK  117  A    between atoms: _283  and  _285
REMARK  118  A    between atoms: _285  and  _286
REMARK  119  A    between atoms: _285  and  _288
REMARK  120  A    between atoms: _288  and  _289
REMARK  121  A    between atoms: _291  and  _293
REMARK  122  A    between atoms: _293  and  _294
REMARK  123  A    between atoms: _293  and  _296
REMARK  124  A    between atoms: _296  and  _297
REMARK  125  A    between atoms: _297  and  _412
REMARK  126  A    between atoms: _298  and  _300
REMARK  127  A    between atoms: _300  and  _301
REMARK  128  A    between atoms: _300  and  _303
REMARK  129  A    between atoms: _303  and  _304
REMARK  130  A    between atoms: _304  and  _305
REMARK  131  A    between atoms: _305  and  _306
REMARK  132  A    between atoms: _306  and  _307
REMARK  133  A    between atoms: _311  and  _313
REMARK  134  A    between atoms: _313  and  _314
REMARK  135  A    between atoms: _316  and  _318
REMARK  136  A    between atoms: _318  and  _319
REMARK  137  A    between atoms: _318  and  _321
REMARK  138  A    between atoms: _321  and  _322
REMARK  139  A    between atoms: _325  and  _327
REMARK  140  A    between atoms: _327  and  _328
REMARK  141  A    between atoms: _327  and  _330
REMARK  142  A    between atoms: _330  and  _331
REMARK  143  A    between atoms: _333  and  _335
REMARK  144  A    between atoms: _335  and  _336
REMARK  145  A    between atoms: _338  and  _340
REMARK  146  A    between atoms: _340  and  _341
REMARK  147  A    between atoms: _343  and  _345
REMARK  148  A    between atoms: _345  and  _346
REMARK  149  A    between atoms: _345  and  _348
REMARK  150  A    between atoms: _348  and  _349
REMARK  151  A    between atoms: _352  and  _354
REMARK  152  A    between atoms: _354  and  _355
REMARK  153  A    between atoms: _354  and  _357
REMARK  154  A    between atoms: _360  and  _362
REMARK  155  A    between atoms: _362  and  _363
REMARK  156  A    between atoms: _362  and  _365
REMARK  157  A    between atoms: _365  and  _366
REMARK  158  A    between atoms: _368  and  _370
REMARK  159  A    between atoms: _370  and  _371
REMARK  160  A    between atoms: _370  and  _373
REMARK  161  A    between atoms: _373  and  _374
REMARK  162  A    between atoms: _384  and  _386
REMARK  163  A    between atoms: _386  and  _387
REMARK  164  A    between atoms: _389  and  _391
REMARK  165  A    between atoms: _391  and  _392
REMARK  166  A    between atoms: _391  and  _394
REMARK  167  A    between atoms: _394  and  _395
REMARK  168  A    between atoms: _395  and  _396
REMARK  169  A    between atoms: _401  and  _403
REMARK  170  A    between atoms: _403  and  _404
REMARK  171  A    between atoms: _406  and  _408
REMARK  172  A    between atoms: _408  and  _409
REMARK  173  A    between atoms: _408  and  _411
REMARK  174  A    between atoms: _411  and  _412
REMARK  175  A    between atoms: _413  and  _415
REMARK  176  A    between atoms: _415  and  _416
REMARK  177  A    between atoms: _419  and  _421
REMARK  178  A    between atoms: _421  and  _422
REMARK  179  A    between atoms: _421  and  _424
REMARK  180  A    between atoms: _424  and  _425
REMARK  181  A    between atoms: _428  and  _430
REMARK  182  A    between atoms: _430  and  _431
REMARK  183  A    between atoms: _430  and  _433
REMARK  184  A    between atoms: _433  and  _434
REMARK  185  A    between atoms: _439  and  _441
REMARK  186  A    between atoms: _441  and  _442
REMARK  187  A    between atoms: _441  and  _444
REMARK  188  A    between atoms: _444  and  _445
REMARK  189  A    between atoms: _451  and  _453
REMARK  190  A    between atoms: _453  and  _454
REMARK  191  A    between atoms: _456  and  _458
REMARK  192  A    between atoms: _458  and  _459
REMARK  193  A    between atoms: _458  and  _461
REMARK  194  A    between atoms: _464  and  _466
REMARK  195  A    between atoms: _466  and  _467
REMARK  196  A    between atoms: _466  and  _469
REMARK  197  A    between atoms: _469  and  _470
REMARK  198  A    between atoms: _475  and  _476
REMARK  199  A    between atoms: _478  and  _480
REMARK  200  A    between atoms: _480  and  _481
REMARK  201  A    between atoms: _480  and  _483
REMARK  202  A    between atoms: _483  and  _484
REMARK                            x       y       z     vdW  Elec       q    Type
REMARK                         _______ _______ _______ _____ _____    ______ ____
ROOT
ATOM      1  O   HOH     1      12.197  45.322  22.816  0.00  0.00    +0.000 OA
ENDROOT
TORSDOF 0
REMARK  Name = ../refined-set-2016/4ish/4ish_pocket.pdb
REMARK  202 active torsions:
REMARK  status: ('A' for Active; 'I' for Inactive)
REMARK    1  A    between atoms: _1  and  _5
REMARK    2  A    between atoms: _5  and  _6
REMARK    3  A    between atoms: _5  and  _8
REMARK    4  A    between atoms: _8  and  _9
REMARK    5  A    between atoms: _12  and  _14
REMARK    6  A    between atoms: _14  and  _15
REMARK    7  A    between atoms: _14  and  _17
REMARK    8  A    between atoms: _20  and  _22
REMARK    9  A    between atoms: _22  and  _23
REMARK   10  A    between atoms: _22  and  _25
REMARK   11  A    between atoms: _25  and  _26
REMARK   12  A    between atoms: _26  and  _27
REMARK   13  A    between atoms: _32  and  _34
REMARK   14  A    between atoms: _34  and  _35
REMARK   15  A    between atoms: _34  and  _37
REMARK   16  A    between atoms: _37  and  _38
REMARK   17  A    between atoms: _41  and  _43
REMARK   18  A    between atoms: _43  and  _44
REMARK   19  A    between atoms: _43  and  _46
REMARK   20  A    between atoms: _46  and  _47
REMARK   21  A    between atoms: _47  and  _77
REMARK   22  A    between atoms: _48  and  _50
REMARK   23  A    between atoms: _50  and  _51
REMARK   24  A    between atoms: _54  and  _56
REMARK   25  A    between atoms: _56  and  _57
REMARK   26  A    between atoms: _60  and  _62
REMARK   27  A    between atoms: _62  and  _63
REMARK   28  A    between atoms: _62  and  _65
REMARK   29  A    between atoms: _65  and  _66
REMARK   30  A    between atoms: _71  and  _73
REMARK   31  A    between atoms: _73  and  _74
REMARK   32  A    between atoms: _73  and  _76
REMARK   33  A    between atoms: _76  and  _77
REMARK   34  A    between atoms: _78  and  _80
REMARK   35  A    between atoms: _80  and  _81
REMARK   36  A    between atoms: _80  and  _83
REMARK   37  A    between atoms: _83  and  _84
REMARK   38  A    between atoms: _90  and  _92
REMARK   39  A    between atoms: _92  and  _93
REMARK   40  A    between atoms: _92  and  _95
REMARK   41  A    between atoms: _95  and  _96
REMARK   42  A    between atoms: _99  and  _101
REMARK   43  A    between atoms: _101  and  _102
REMARK   44  A    between atoms: _101  and  _104
REMARK   45  A    between atoms: _104  and  _105
REMARK   46  A    between atoms: _105  and  _106
REMARK   47  A    between atoms: _106  and  _107
REMARK   48  A    between atoms: _107  and  _108
REMARK   49  A    between atoms: _112  and  _114
REMARK   50  A    between atoms: _114  and  _115
REMARK   51  A    between atoms: _114  and  _117
REMARK   52  A    between atoms: _117  and  _118
REMARK   53  A    between atoms: _123  and  _124
REMARK   54  A    between atoms: _126  and  _128
REMARK   55  A    between atoms: _128  and  _129
REMARK   56  A    between atoms: _128  and  _131
REMARK   57  A    between atoms: _135  and  _136
REMARK   58  A    between atoms: _141  and  _143
REMARK   59  A    between atoms: _143  and  _144
REMARK   60  A    between atoms: _146  and  _148
REMARK   61  A    between atoms: _148  and  _149
REMARK   62  A    between atoms: _148  and  _151
REMARK   63  A    between atoms: _151  and  _152
REMARK   64  A    between atoms: _155  and  _157
REMARK   65  A    between atoms: _157  and  _158
REMARK   66  A    between atoms: _157  and  _160
REMARK   67  A    between atoms: _160  and  _161
REMARK   68  A    between atoms: _164  and  _166
REMARK   69  A    between atoms: _166  and  _167
REMARK   70  A    between atoms: _166  and  _169
REMARK   71  A    between atoms: _169  and  _170
REMARK   72  A    between atoms: _175  and  _177
REMARK   73  A    between atoms: _177  and  _178
REMARK   74  A    between atoms: _177  and  _180
REMARK   75  A    between atoms: _180  and  _181
REMARK   76  A    between atoms: _184  and  _186
REMARK   77  A    between atoms: _186  and  _187
REMARK   78  A    between atoms: _186  and  _189
REMARK   79  A    between atoms: _192  and  _194
REMARK   80  A    between atoms: _194  and  _195
REMARK   81  A    between atoms: _194  and  _197
REMARK   82  A    between atoms: _197  and  _198
REMARK   83  A    between atoms: _198  and  _199
REMARK   84  A    between atoms: _204  and  _206
REMARK   85  A    between atoms: _206  and  _207
REMARK   86  A    between atoms: _206  and  _209
REMARK   87  A    between atoms: _209  and  _210
REMARK   88  A    between atoms: _213  and  _215
REMARK   89  A    between atoms: _215  and  _216
REMARK   90  A    between atoms: _215  and  _218
REMARK   91  A    between atoms: _218  and  _219
REMARK   92  A    between atoms: _219  and  _220
REMARK   93  A    between atoms: _220  and  _221
REMARK   94  A    between atoms: _230  and  _232
REMARK   95  A    between atoms: _232  and  _233
REMARK   96  A    between atoms: _232  and  _235
REMARK   97  A    between atoms: _235  and  _236
REMARK   98  A    between atoms: _240  and  _241
REMARK   99  A    between atoms: _246  and  _248
REMARK  100  A    between atoms: _248  and  _249
REMARK  101  A    between atoms: _248  and  _251
REMARK  102  A    between atoms: _251  and  _252
REMARK  103  A    between atoms: _252  and  _253
REMARK  104  A    between atoms: _255  and  _257
REMARK  105  A    between atoms: _257  and  _258
REMARK  106  A    between atoms: _261  and  _263
REMARK  107  A    between atoms: _263  and  _264
REMARK  108  A    between atoms: _263  and  _266
REMARK  109  A    between atoms: _266  and  _267
REMARK  110  A    between atoms: _267  and  _268
REMARK  111  A    between atoms: _268  and  _269
REMARK  112  A    between atoms: _269  and  _270
REMARK  113  A    between atoms: _274  and  _276
REMARK  114  A    between atoms: _276  and  _277
REMARK  115  A    between atoms: _276  and  _279
REMARK  116  A    between atoms: _279  and  _280
REMARK  117  A    between atoms: _283  and  _285
REMARK  118  A    between atoms: _285  and  _286
REMARK  119  A    between atoms: _285  and  _288
REMARK  120  A    between atoms: _288  and  _289
REMARK  121  A    between atoms: _291  and  _293
REMARK  122  A    between atoms: _293  and  _294
REMARK  123  A    between atoms: _293  and  _296
REMARK  124  A    between atoms: _296  and  _297
REMARK  125  A    between atoms: _297  and  _412
REMARK  126  A    between atoms: _298  and  _300
REMARK  127  A    between atoms: _300  and  _301
REMARK  128  A    between atoms: _300  and  _303
REMARK  129  A    between atoms: _303  and  _304
REMARK  130  A    between atoms: _304  and  _305
REMARK  131  A    between atoms: _305  and  _306
REMARK  132  A    between atoms: _306  and  _307
REMARK  133  A    between atoms: _311  and  _313
REMARK  134  A    between atoms: _313  and  _314
REMARK  135  A    between atoms: _316  and  _318
REMARK  136  A    between atoms: _318  and  _319
REMARK  137  A    between atoms: _318  and  _321
REMARK  138  A    between atoms: _321  and  _322
REMARK  139  A    between atoms: _325  and  _327
REMARK  140  A    between atoms: _327  and  _328
REMARK  141  A    between atoms: _327  and  _330
REMARK  142  A    between atoms: _330  and  _331
REMARK  143  A    between atoms: _333  and  _335
REMARK  144  A    between atoms: _335  and  _336
REMARK  145  A    between atoms: _338  and  _340
REMARK  146  A    between atoms: _340  and  _341
REMARK  147  A    between atoms: _343  and  _345
REMARK  148  A    between atoms: _345  and  _346
REMARK  149  A    between atoms: _345  and  _348
REMARK  150  A    between atoms: _348  and  _349
REMARK  151  A    between atoms: _352  and  _354
REMARK  152  A    between atoms: _354  and  _355
REMARK  153  A    between atoms: _354  and  _357
REMARK  154  A    between atoms: _360  and  _362
REMARK  155  A    between atoms: _362  and  _363
REMARK  156  A    between atoms: _362  and  _365
REMARK  157  A    between atoms: _365  and  _366
REMARK  158  A    between atoms: _368  and  _370
REMARK  159  A    between atoms: _370  and  _371
REMARK  160  A    between atoms: _370  and  _373
REMARK  161  A    between atoms: _373  and  _374
REMARK  162  A    between atoms: _384  and  _386
REMARK  163  A    between atoms: _386  and  _387
REMARK  164  A    between atoms: _389  and  _391
REMARK  165  A    between atoms: _391  and  _392
REMARK  166  A    between atoms: _391  and  _394
REMARK  167  A    between atoms: _394  and  _395
REMARK  168  A    between atoms: _395  and  _396
REMARK  169  A    between atoms: _401  and  _403
REMARK  170  A    between atoms: _403  and  _404
REMARK  171  A    between atoms: _406  and  _408
REMARK  172  A    between atoms: _408  and  _409
REMARK  173  A    between atoms: _408  and  _411
REMARK  174  A    between atoms: _411  and  _412
REMARK  175  A    between atoms: _413  and  _415
REMARK  176  A    between atoms: _415  and  _416
REMARK  177  A    between atoms: _419  and  _421
REMARK  178  A    between atoms: _421  and  _422
REMARK  179  A    between atoms: _421  and  _424
REMARK  180  A    between atoms: _424  and  _425
REMARK  181  A    between atoms: _428  and  _430
REMARK  182  A    between atoms: _430  and  _431
REMARK  183  A    between atoms: _430  and  _433
REMARK  184  A    between atoms: _433  and  _434
REMARK  185  A    between atoms: _439  and  _441
REMARK  186  A    between atoms: _441  and  _442
REMARK  187  A    between atoms: _441  and  _444
REMARK  188  A    between atoms: _444  and  _445
REMARK  189  A    between atoms: _451  and  _453
REMARK  190  A    between atoms: _453  and  _454
REMARK  191  A    between atoms: _456  and  _458
REMARK  192  A    between atoms: _458  and  _459
REMARK  193  A    between atoms: _458  and  _461
REMARK  194  A    between atoms: _464  and  _466
REMARK  195  A    between atoms: _466  and  _467
REMARK  196  A    between atoms: _466  and  _469
REMARK  197  A    between atoms: _469  and  _470
REMARK  198  A    between atoms: _475  and  _476
REMARK  199  A    between atoms: _478  and  _480
REMARK  200  A    between atoms: _480  and  _481
REMARK  201  A    between atoms: _480  and  _483
REMARK  202  A    between atoms: _483  and  _484
REMARK                            x       y       z     vdW  Elec       q    Type
REMARK                         _______ _______ _______ _____ _____    ______ ____
ROOT
ATOM      1  O   HOH     1      12.173  42.012  30.537  0.00  0.00    +0.000 OA
ENDROOT
TORSDOF 0
REMARK  Name = ../refined-set-2016/4ish/4ish_pocket.pdb
REMARK  202 active torsions:
REMARK  status: ('A' for Active; 'I' for Inactive)
REMARK    1  A    between atoms: _1  and  _5
REMARK    2  A    between atoms: _5  and  _6
REMARK    3  A    between atoms: _5  and  _8
REMARK    4  A    between atoms: _8  and  _9
REMARK    5  A    between atoms: _12  and  _14
REMARK    6  A    between atoms: _14  and  _15
REMARK    7  A    between atoms: _14  and  _17
REMARK    8  A    between atoms: _20  and  _22
REMARK    9  A    between atoms: _22  and  _23
REMARK   10  A    between atoms: _22  and  _25
REMARK   11  A    between atoms: _25  and  _26
REMARK   12  A    between atoms: _26  and  _27
REMARK   13  A    between atoms: _32  and  _34
REMARK   14  A    between atoms: _34  and  _35
REMARK   15  A    between atoms: _34  and  _37
REMARK   16  A    between atoms: _37  and  _38
REMARK   17  A    between atoms: _41  and  _43
REMARK   18  A    between atoms: _43  and  _44
REMARK   19  A    between atoms: _43  and  _46
REMARK   20  A    between atoms: _46  and  _47
REMARK   21  A    between atoms: _47  and  _77
REMARK   22  A    between atoms: _48  and  _50
REMARK   23  A    between atoms: _50  and  _51
REMARK   24  A    between atoms: _54  and  _56
REMARK   25  A    between atoms: _56  and  _57
REMARK   26  A    between atoms: _60  and  _62
REMARK   27  A    between atoms: _62  and  _63
REMARK   28  A    between atoms: _62  and  _65
REMARK   29  A    between atoms: _65  and  _66
REMARK   30  A    between atoms: _71  and  _73
REMARK   31  A    between atoms: _73  and  _74
REMARK   32  A    between atoms: _73  and  _76
REMARK   33  A    between atoms: _76  and  _77
REMARK   34  A    between atoms: _78  and  _80
REMARK   35  A    between atoms: _80  and  _81
REMARK   36  A    between atoms: _80  and  _83
REMARK   37  A    between atoms: _83  and  _84
REMARK   38  A    between atoms: _90  and  _92
REMARK   39  A    between atoms: _92  and  _93
REMARK   40  A    between atoms: _92  and  _95
REMARK   41  A    between atoms: _95  and  _96
REMARK   42  A    between atoms: _99  and  _101
REMARK   43  A    between atoms: _101  and  _102
REMARK   44  A    between atoms: _101  and  _104
REMARK   45  A    between atoms: _104  and  _105
REMARK   46  A    between atoms: _105  and  _106
REMARK   47  A    between atoms: _106  and  _107
REMARK   48  A    between atoms: _107  and  _108
REMARK   49  A    between atoms: _112  and  _114
REMARK   50  A    between atoms: _114  and  _115
REMARK   51  A    between atoms: _114  and  _117
REMARK   52  A    between atoms: _117  and  _118
REMARK   53  A    between atoms: _123  and  _124
REMARK   54  A    between atoms: _126  and  _128
REMARK   55  A    between atoms: _128  and  _129
REMARK   56  A    between atoms: _128  and  _131
REMARK   57  A    between atoms: _135  and  _136
REMARK   58  A    between atoms: _141  and  _143
REMARK   59  A    between atoms: _143  and  _144
REMARK   60  A    between atoms: _146  and  _148
REMARK   61  A    between atoms: _148  and  _149
REMARK   62  A    between atoms: _148  and  _151
REMARK   63  A    between atoms: _151  and  _152
REMARK   64  A    between atoms: _155  and  _157
REMARK   65  A    between atoms: _157  and  _158
REMARK   66  A    between atoms: _157  and  _160
REMARK   67  A    between atoms: _160  and  _161
REMARK   68  A    between atoms: _164  and  _166
REMARK   69  A    between atoms: _166  and  _167
REMARK   70  A    between atoms: _166  and  _169
REMARK   71  A    between atoms: _169  and  _170
REMARK   72  A    between atoms: _175  and  _177
REMARK   73  A    between atoms: _177  and  _178
REMARK   74  A    between atoms: _177  and  _180
REMARK   75  A    between atoms: _180  and  _181
REMARK   76  A    between atoms: _184  and  _186
REMARK   77  A    between atoms: _186  and  _187
REMARK   78  A    between atoms: _186  and  _189
REMARK   79  A    between atoms: _192  and  _194
REMARK   80  A    between atoms: _194  and  _195
REMARK   81  A    between atoms: _194  and  _197
REMARK   82  A    between atoms: _197  and  _198
REMARK   83  A    between atoms: _198  and  _199
REMARK   84  A    between atoms: _204  and  _206
REMARK   85  A    between atoms: _206  and  _207
REMARK   86  A    between atoms: _206  and  _209
REMARK   87  A    between atoms: _209  and  _210
REMARK   88  A    between atoms: _213  and  _215
REMARK   89  A    between atoms: _215  and  _216
REMARK   90  A    between atoms: _215  and  _218
REMARK   91  A    between atoms: _218  and  _219
REMARK   92  A    between atoms: _219  and  _220
REMARK   93  A    between atoms: _220  and  _221
REMARK   94  A    between atoms: _230  and  _232
REMARK   95  A    between atoms: _232  and  _233
REMARK   96  A    between atoms: _232  and  _235
REMARK   97  A    between atoms: _235  and  _236
REMARK   98  A    between atoms: _240  and  _241
REMARK   99  A    between atoms: _246  and  _248
REMARK  100  A    between atoms: _248  and  _249
REMARK  101  A    between atoms: _248  and  _251
REMARK  102  A    between atoms: _251  and  _252
REMARK  103  A    between atoms: _252  and  _253
REMARK  104  A    between atoms: _255  and  _257
REMARK  105  A    between atoms: _257  and  _258
REMARK  106  A    between atoms: _261  and  _263
REMARK  107  A    between atoms: _263  and  _264
REMARK  108  A    between atoms: _263  and  _266
REMARK  109  A    between atoms: _266  and  _267
REMARK  110  A    between atoms: _267  and  _268
REMARK  111  A    between atoms: _268  and  _269
REMARK  112  A    between atoms: _269  and  _270
REMARK  113  A    between atoms: _274  and  _276
REMARK  114  A    between atoms: _276  and  _277
REMARK  115  A    between atoms: _276  and  _279
REMARK  116  A    between atoms: _279  and  _280
REMARK  117  A    between atoms: _283  and  _285
REMARK  118  A    between atoms: _285  and  _286
REMARK  119  A    between atoms: _285  and  _288
REMARK  120  A    between atoms: _288  and  _289
REMARK  121  A    between atoms: _291  and  _293
REMARK  122  A    between atoms: _293  and  _294
REMARK  123  A    between atoms: _293  and  _296
REMARK  124  A    between atoms: _296  and  _297
REMARK  125  A    between atoms: _297  and  _412
REMARK  126  A    between atoms: _298  and  _300
REMARK  127  A    between atoms: _300  and  _301
REMARK  128  A    between atoms: _300  and  _303
REMARK  129  A    between atoms: _303  and  _304
REMARK  130  A    between atoms: _304  and  _305
REMARK  131  A    between atoms: _305  and  _306
REMARK  132  A    between atoms: _306  and  _307
REMARK  133  A    between atoms: _311  and  _313
REMARK  134  A    between atoms: _313  and  _314
REMARK  135  A    between atoms: _316  and  _318
REMARK  136  A    between atoms: _318  and  _319
REMARK  137  A    between atoms: _318  and  _321
REMARK  138  A    between atoms: _321  and  _322
REMARK  139  A    between atoms: _325  and  _327
REMARK  140  A    between atoms: _327  and  _328
REMARK  141  A    between atoms: _327  and  _330
REMARK  142  A    between atoms: _330  and  _331
REMARK  143  A    between atoms: _333  and  _335
REMARK  144  A    between atoms: _335  and  _336
REMARK  145  A    between atoms: _338  and  _340
REMARK  146  A    between atoms: _340  and  _341
REMARK  147  A    between atoms: _343  and  _345
REMARK  148  A    between atoms: _345  and  _346
REMARK  149  A    between atoms: _345  and  _348
REMARK  150  A    between atoms: _348  and  _349
REMARK  151  A    between atoms: _352  and  _354
REMARK  152  A    between atoms: _354  and  _355
REMARK  153  A    between atoms: _354  and  _357
REMARK  154  A    between atoms: _360  and  _362
REMARK  155  A    between atoms: _362  and  _363
REMARK  156  A    between atoms: _362  and  _365
REMARK  157  A    between atoms: _365  and  _366
REMARK  158  A    between atoms: _368  and  _370
REMARK  159  A    between atoms: _370  and  _371
REMARK  160  A    between atoms: _370  and  _373
REMARK  161  A    between atoms: _373  and  _374
REMARK  162  A    between atoms: _384  and  _386
REMARK  163  A    between atoms: _386  and  _387
REMARK  164  A    between atoms: _389  and  _391
REMARK  165  A    between atoms: _391  and  _392
REMARK  166  A    between atoms: _391  and  _394
REMARK  167  A    between atoms: _394  and  _395
REMARK  168  A    between atoms: _395  and  _396
REMARK  169  A    between atoms: _401  and  _403
REMARK  170  A    between atoms: _403  and  _404
REMARK  171  A    between atoms: _406  and  _408
REMARK  172  A    between atoms: _408  and  _409
REMARK  173  A    between atoms: _408  and  _411
REMARK  174  A    between atoms: _411  and  _412
REMARK  175  A    between atoms: _413  and  _415
REMARK  176  A    between atoms: _415  and  _416
REMARK  177  A    between atoms: _419  and  _421
REMARK  178  A    between atoms: _421  and  _422
REMARK  179  A    between atoms: _421  and  _424
REMARK  180  A    between atoms: _424  and  _425
REMARK  181  A    between atoms: _428  and  _430
REMARK  182  A    between atoms: _430  and  _431
REMARK  183  A    between atoms: _430  and  _433
REMARK  184  A    between atoms: _433  and  _434
REMARK  185  A    between atoms: _439  and  _441
REMARK  186  A    between atoms: _441  and  _442
REMARK  187  A    between atoms: _441  and  _444
REMARK  188  A    between atoms: _444  and  _445
REMARK  189  A    between atoms: _451  and  _453
REMARK  190  A    between atoms: _453  and  _454
REMARK  191  A    between atoms: _456  and  _458
REMARK  192  A    between atoms: _458  and  _459
REMARK  193  A    between atoms: _458  and  _461
REMARK  194  A    between atoms: _464  and  _466
REMARK  195  A    between atoms: _466  and  _467
REMARK  196  A    between atoms: _466  and  _469
REMARK  197  A    between atoms: _469  and  _470
REMARK  198  A    between atoms: _475  and  _476
REMARK  199  A    between atoms: _478  and  _480
REMARK  200  A    between atoms: _480  and  _481
REMARK  201  A    between atoms: _480  and  _483
REMARK  202  A    between atoms: _483  and  _484
REMARK                            x       y       z     vdW  Elec       q    Type
REMARK                         _______ _______ _______ _____ _____    ______ ____
ROOT
ATOM      1  O   HOH     1      16.157  43.886  21.543  0.00  0.00    +0.000 OA
ENDROOT
TORSDOF 0
REMARK  Name = ../refined-set-2016/4ish/4ish_pocket.pdb
REMARK  202 active torsions:
REMARK  status: ('A' for Active; 'I' for Inactive)
REMARK    1  A    between atoms: _1  and  _5
REMARK    2  A    between atoms: _5  and  _6
REMARK    3  A    between atoms: _5  and  _8
REMARK    4  A    between atoms: _8  and  _9
REMARK    5  A    between atoms: _12  and  _14
REMARK    6  A    between atoms: _14  and  _15
REMARK    7  A    between atoms: _14  and  _17
REMARK    8  A    between atoms: _20  and  _22
REMARK    9  A    between atoms: _22  and  _23
REMARK   10  A    between atoms: _22  and  _25
REMARK   11  A    between atoms: _25  and  _26
REMARK   12  A    between atoms: _26  and  _27
REMARK   13  A    between atoms: _32  and  _34
REMARK   14  A    between atoms: _34  and  _35
REMARK   15  A    between atoms: _34  and  _37
REMARK   16  A    between atoms: _37  and  _38
REMARK   17  A    between atoms: _41  and  _43
REMARK   18  A    between atoms: _43  and  _44
REMARK   19  A    between atoms: _43  and  _46
REMARK   20  A    between atoms: _46  and  _47
REMARK   21  A    between atoms: _47  and  _77
REMARK   22  A    between atoms: _48  and  _50
REMARK   23  A    between atoms: _50  and  _51
REMARK   24  A    between atoms: _54  and  _56
REMARK   25  A    between atoms: _56  and  _57
REMARK   26  A    between atoms: _60  and  _62
REMARK   27  A    between atoms: _62  and  _63
REMARK   28  A    between atoms: _62  and  _65
REMARK   29  A    between atoms: _65  and  _66
REMARK   30  A    between atoms: _71  and  _73
REMARK   31  A    between atoms: _73  and  _74
REMARK   32  A    between atoms: _73  and  _76
REMARK   33  A    between atoms: _76  and  _77
REMARK   34  A    between atoms: _78  and  _80
REMARK   35  A    between atoms: _80  and  _81
REMARK   36  A    between atoms: _80  and  _83
REMARK   37  A    between atoms: _83  and  _84
REMARK   38  A    between atoms: _90  and  _92
REMARK   39  A    between atoms: _92  and  _93
REMARK   40  A    between atoms: _92  and  _95
REMARK   41  A    between atoms: _95  and  _96
REMARK   42  A    between atoms: _99  and  _101
REMARK   43  A    between atoms: _101  and  _102
REMARK   44  A    between atoms: _101  and  _104
REMARK   45  A    between atoms: _104  and  _105
REMARK   46  A    between atoms: _105  and  _106
REMARK   47  A    between atoms: _106  and  _107
REMARK   48  A    between atoms: _107  and  _108
REMARK   49  A    between atoms: _112  and  _114
REMARK   50  A    between atoms: _114  and  _115
REMARK   51  A    between atoms: _114  and  _117
REMARK   52  A    between atoms: _117  and  _118
REMARK   53  A    between atoms: _123  and  _124
REMARK   54  A    between atoms: _126  and  _128
REMARK   55  A    between atoms: _128  and  _129
REMARK   56  A    between atoms: _128  and  _131
REMARK   57  A    between atoms: _135  and  _136
REMARK   58  A    between atoms: _141  and  _143
REMARK   59  A    between atoms: _143  and  _144
REMARK   60  A    between atoms: _146  and  _148
REMARK   61  A    between atoms: _148  and  _149
REMARK   62  A    between atoms: _148  and  _151
REMARK   63  A    between atoms: _151  and  _152
REMARK   64  A    between atoms: _155  and  _157
REMARK   65  A    between atoms: _157  and  _158
REMARK   66  A    between atoms: _157  and  _160
REMARK   67  A    between atoms: _160  and  _161
REMARK   68  A    between atoms: _164  and  _166
REMARK   69  A    between atoms: _166  and  _167
REMARK   70  A    between atoms: _166  and  _169
REMARK   71  A    between atoms: _169  and  _170
REMARK   72  A    between atoms: _175  and  _177
REMARK   73  A    between atoms: _177  and  _178
REMARK   74  A    between atoms: _177  and  _180
REMARK   75  A    between atoms: _180  and  _181
REMARK   76  A    between atoms: _184  and  _186
REMARK   77  A    between atoms: _186  and  _187
REMARK   78  A    between atoms: _186  and  _189
REMARK   79  A    between atoms: _192  and  _194
REMARK   80  A    between atoms: _194  and  _195
REMARK   81  A    between atoms: _194  and  _197
REMARK   82  A    between atoms: _197  and  _198
REMARK   83  A    between atoms: _198  and  _199
REMARK   84  A    between atoms: _204  and  _206
REMARK   85  A    between atoms: _206  and  _207
REMARK   86  A    between atoms: _206  and  _209
REMARK   87  A    between atoms: _209  and  _210
REMARK   88  A    between atoms: _213  and  _215
REMARK   89  A    between atoms: _215  and  _216
REMARK   90  A    between atoms: _215  and  _218
REMARK   91  A    between atoms: _218  and  _219
REMARK   92  A    between atoms: _219  and  _220
REMARK   93  A    between atoms: _220  and  _221
REMARK   94  A    between atoms: _230  and  _232
REMARK   95  A    between atoms: _232  and  _233
REMARK   96  A    between atoms: _232  and  _235
REMARK   97  A    between atoms: _235  and  _236
REMARK   98  A    between atoms: _240  and  _241
REMARK   99  A    between atoms: _246  and  _248
REMARK  100  A    between atoms: _248  and  _249
REMARK  101  A    between atoms: _248  and  _251
REMARK  102  A    between atoms: _251  and  _252
REMARK  103  A    between atoms: _252  and  _253
REMARK  104  A    between atoms: _255  and  _257
REMARK  105  A    between atoms: _257  and  _258
REMARK  106  A    between atoms: _261  and  _263
REMARK  107  A    between atoms: _263  and  _264
REMARK  108  A    between atoms: _263  and  _266
REMARK  109  A    between atoms: _266  and  _267
REMARK  110  A    between atoms: _267  and  _268
REMARK  111  A    between atoms: _268  and  _269
REMARK  112  A    between atoms: _269  and  _270
REMARK  113  A    between atoms: _274  and  _276
REMARK  114  A    between atoms: _276  and  _277
REMARK  115  A    between atoms: _276  and  _279
REMARK  116  A    between atoms: _279  and  _280
REMARK  117  A    between atoms: _283  and  _285
REMARK  118  A    between atoms: _285  and  _286
REMARK  119  A    between atoms: _285  and  _288
REMARK  120  A    between atoms: _288  and  _289
REMARK  121  A    between atoms: _291  and  _293
REMARK  122  A    between atoms: _293  and  _294
REMARK  123  A    between atoms: _293  and  _296
REMARK  124  A    between atoms: _296  and  _297
REMARK  125  A    between atoms: _297  and  _412
REMARK  126  A    between atoms: _298  and  _300
REMARK  127  A    between atoms: _300  and  _301
REMARK  128  A    between atoms: _300  and  _303
REMARK  129  A    between atoms: _303  and  _304
REMARK  130  A    between atoms: _304  and  _305
REMARK  131  A    between atoms: _305  and  _306
REMARK  132  A    between atoms: _306  and  _307
REMARK  133  A    between atoms: _311  and  _313
REMARK  134  A    between atoms: _313  and  _314
REMARK  135  A    between atoms: _316  and  _318
REMARK  136  A    between atoms: _318  and  _319
REMARK  137  A    between atoms: _318  and  _321
REMARK  138  A    between atoms: _321  and  _322
REMARK  139  A    between atoms: _325  and  _327
REMARK  140  A    between atoms: _327  and  _328
REMARK  141  A    between atoms: _327  and  _330
REMARK  142  A    between atoms: _330  and  _331
REMARK  143  A    between atoms: _333  and  _335
REMARK  144  A    between atoms: _335  and  _336
REMARK  145  A    between atoms: _338  and  _340
REMARK  146  A    between atoms: _340  and  _341
REMARK  147  A    between atoms: _343  and  _345
REMARK  148  A    between atoms: _345  and  _346
REMARK  149  A    between atoms: _345  and  _348
REMARK  150  A    between atoms: _348  and  _349
REMARK  151  A    between atoms: _352  and  _354
REMARK  152  A    between atoms: _354  and  _355
REMARK  153  A    between atoms: _354  and  _357
REMARK  154  A    between atoms: _360  and  _362
REMARK  155  A    between atoms: _362  and  _363
REMARK  156  A    between atoms: _362  and  _365
REMARK  157  A    between atoms: _365  and  _366
REMARK  158  A    between atoms: _368  and  _370
REMARK  159  A    between atoms: _370  and  _371
REMARK  160  A    between atoms: _370  and  _373
REMARK  161  A    between atoms: _373  and  _374
REMARK  162  A    between atoms: _384  and  _386
REMARK  163  A    between atoms: _386  and  _387
REMARK  164  A    between atoms: _389  and  _391
REMARK  165  A    between atoms: _391  and  _392
REMARK  166  A    between atoms: _391  and  _394
REMARK  167  A    between atoms: _394  and  _395
REMARK  168  A    between atoms: _395  and  _396
REMARK  169  A    between atoms: _401  and  _403
REMARK  170  A    between atoms: _403  and  _404
REMARK  171  A    between atoms: _406  and  _408
REMARK  172  A    between atoms: _408  and  _409
REMARK  173  A    between atoms: _408  and  _411
REMARK  174  A    between atoms: _411  and  _412
REMARK  175  A    between atoms: _413  and  _415
REMARK  176  A    between atoms: _415  and  _416
REMARK  177  A    between atoms: _419  and  _421
REMARK  178  A    between atoms: _421  and  _422
REMARK  179  A    between atoms: _421  and  _424
REMARK  180  A    between atoms: _424  and  _425
REMARK  181  A    between atoms: _428  and  _430
REMARK  182  A    between atoms: _430  and  _431
REMARK  183  A    between atoms: _430  and  _433
REMARK  184  A    between atoms: _433  and  _434
REMARK  185  A    between atoms: _439  and  _441
REMARK  186  A    between atoms: _441  and  _442
REMARK  187  A    between atoms: _441  and  _444
REMARK  188  A    between atoms: _444  and  _445
REMARK  189  A    between atoms: _451  and  _453
REMARK  190  A    between atoms: _453  and  _454
REMARK  191  A    between atoms: _456  and  _458
REMARK  192  A    between atoms: _458  and  _459
REMARK  193  A    between atoms: _458  and  _461
REMARK  194  A    between atoms: _464  and  _466
REMARK  195  A    between atoms: _466  and  _467
REMARK  196  A    between atoms: _466  and  _469
REMARK  197  A    between atoms: _469  and  _470
REMARK  198  A    between atoms: _475  and  _476
REMARK  199  A    between atoms: _478  and  _480
REMARK  200  A    between atoms: _480  and  _481
REMARK  201  A    between atoms: _480  and  _483
REMARK  202  A    between atoms: _483  and  _484
REMARK                            x       y       z     vdW  Elec       q    Type
REMARK                         _______ _______ _______ _____ _____    ______ ____
ROOT
ATOM      1  O   HOH     1      14.550  41.461  21.223  0.00  0.00    +0.000 OA
ENDROOT
TORSDOF 0
