REMARK  Name = ../refined-set-2016/3gtc/3gtc_pocket.pdb
REMARK  120 active torsions:
REMARK  status: ('A' for Active; 'I' for Inactive)
REMARK    1  A    between atoms: _1  and  _3
REMARK    2  A    between atoms: _3  and  _4
REMARK    3  A    between atoms: _3  and  _6
REMARK    4  A    between atoms: _6  and  _7
REMARK    5  A    between atoms: _7  and  _8
REMARK    6  A    between atoms: _11  and  _13
REMARK    7  A    between atoms: _13  and  _14
REMARK    8  A    between atoms: _16  and  _18
REMARK    9  A    between atoms: _18  and  _19
REMARK   10  A    between atoms: _18  and  _21
REMARK   11  A    between atoms: _21  and  _22
REMARK   12  A    between atoms: _24  and  _26
REMARK   13  A    between atoms: _26  and  _27
REMARK   14  A    between atoms: _26  and  _29
REMARK   15  A    between atoms: _29  and  _30
REMARK   16  A    between atoms: _30  and  _31
REMARK   17  A    between atoms: _31  and  _32
REMARK   18  A    between atoms: _32  and  _33
REMARK   19  A    between atoms: _37  and  _39
REMARK   20  A    between atoms: _39  and  _40
REMARK   21  A    between atoms: _39  and  _42
REMARK   22  A    between atoms: _42  and  _43
REMARK   23  A    between atoms: _46  and  _48
REMARK   24  A    between atoms: _48  and  _49
REMARK   25  A    between atoms: _48  and  _51
REMARK   26  A    between atoms: _51  and  _52
REMARK   27  A    between atoms: _52  and  _53
REMARK   28  A    between atoms: _58  and  _60
REMARK   29  A    between atoms: _60  and  _61
REMARK   30  A    between atoms: _60  and  _63
REMARK   31  A    between atoms: _66  and  _68
REMARK   32  A    between atoms: _68  and  _69
REMARK   33  A    between atoms: _68  and  _71
REMARK   34  A    between atoms: _71  and  _72
REMARK   35  A    between atoms: _75  and  _77
REMARK   36  A    between atoms: _77  and  _78
REMARK   37  A    between atoms: _77  and  _80
REMARK   38  A    between atoms: _80  and  _81
REMARK   39  A    between atoms: _86  and  _87
REMARK   40  A    between atoms: _89  and  _91
REMARK   41  A    between atoms: _91  and  _92
REMARK   42  A    between atoms: _91  and  _94
REMARK   43  A    between atoms: _94  and  _95
REMARK   44  A    between atoms: _100  and  _102
REMARK   45  A    between atoms: _102  and  _103
REMARK   46  A    between atoms: _102  and  _105
REMARK   47  A    between atoms: _105  and  _106
REMARK   48  A    between atoms: _111  and  _112
REMARK   49  A    between atoms: _114  and  _116
REMARK   50  A    between atoms: _116  and  _117
REMARK   51  A    between atoms: _119  and  _121
REMARK   52  A    between atoms: _121  and  _122
REMARK   53  A    between atoms: _121  and  _124
REMARK   54  A    between atoms: _124  and  _125
REMARK   55  A    between atoms: _130  and  _131
REMARK   56  A    between atoms: _133  and  _135
REMARK   57  A    between atoms: _135  and  _136
REMARK   58  A    between atoms: _135  and  _138
REMARK   59  A    between atoms: _138  and  _139
REMARK   60  A    between atoms: _139  and  _140
REMARK   61  A    between atoms: _140  and  _141
REMARK   62  A    between atoms: _150  and  _152
REMARK   63  A    between atoms: _152  and  _153
REMARK   64  A    between atoms: _152  and  _155
REMARK   65  A    between atoms: _155  and  _156
REMARK   66  A    between atoms: _156  and  _157
REMARK   67  A    between atoms: _157  and  _158
REMARK   68  A    between atoms: _158  and  _159
REMARK   69  A    between atoms: _163  and  _165
REMARK   70  A    between atoms: _165  and  _166
REMARK   71  A    between atoms: _169  and  _171
REMARK   72  A    between atoms: _171  and  _172
REMARK   73  A    between atoms: _171  and  _174
REMARK   74  A    between atoms: _177  and  _179
REMARK   75  A    between atoms: _179  and  _180
REMARK   76  A    between atoms: _179  and  _182
REMARK   77  A    between atoms: _182  and  _183
REMARK   78  A    between atoms: _188  and  _190
REMARK   79  A    between atoms: _190  and  _191
REMARK   80  A    between atoms: _190  and  _193
REMARK   81  A    between atoms: _196  and  _198
REMARK   82  A    between atoms: _198  and  _199
REMARK   83  A    between atoms: _198  and  _201
REMARK   84  A    between atoms: _201  and  _202
REMARK   85  A    between atoms: _205  and  _206
REMARK   86  A    between atoms: _211  and  _213
REMARK   87  A    between atoms: _213  and  _214
REMARK   88  A    between atoms: _216  and  _218
REMARK   89  A    between atoms: _218  and  _219
REMARK   90  A    between atoms: _222  and  _224
REMARK   91  A    between atoms: _224  and  _225
REMARK   92  A    between atoms: _224  and  _227
REMARK   93  A    between atoms: _227  and  _228
REMARK   94  A    between atoms: _231  and  _233
REMARK   95  A    between atoms: _233  and  _234
REMARK   96  A    between atoms: _237  and  _239
REMARK   97  A    between atoms: _239  and  _240
REMARK   98  A    between atoms: _239  and  _242
REMARK   99  A    between atoms: _242  and  _243
REMARK  100  A    between atoms: _248  and  _249
REMARK  101  A    between atoms: _251  and  _253
REMARK  102  A    between atoms: _253  and  _254
REMARK  103  A    between atoms: _256  and  _258
REMARK  104  A    between atoms: _258  and  _259
REMARK  105  A    between atoms: _262  and  _264
REMARK  106  A    between atoms: _264  and  _265
REMARK  107  A    between atoms: _264  and  _267
REMARK  108  A    between atoms: _267  and  _268
REMARK  109  A    between atoms: _271  and  _273
REMARK  110  A    between atoms: _273  and  _274
REMARK  111  A    between atoms: _276  and  _278
REMARK  112  A    between atoms: _278  and  _279
REMARK  113  A    between atoms: _281  and  _283
REMARK  114  A    between atoms: _283  and  _284
REMARK  115  A    between atoms: _283  and  _286
REMARK  116  A    between atoms: _286  and  _287
REMARK  117  A    between atoms: _293  and  _295
REMARK  118  A    between atoms: _295  and  _296
REMARK  119  A    between atoms: _295  and  _298
REMARK  120  A    between atoms: _298  and  _299
REMARK                            x       y       z     vdW  Elec       q    Type
REMARK                         _______ _______ _______ _____ _____    ______ ____
ROOT
ATOM      1  CA  GLU A   1      22.492  -5.094  14.179  0.00  0.00    +0.134 C 
ENDROOT
BRANCH   1   2
ATOM      2  N   GLU A   1      21.651  -6.190  14.652  0.00  0.00    -0.239 NA
ATOM      3  H   GLU A   1      20.618  -6.069  14.652  0.00  0.00    +0.142 HD
ENDBRANCH   1   2
BRANCH   1   4
ATOM      4  C   GLU A   1      23.207  -4.447  15.368  0.00  0.00    +0.224 C 
ATOM      5  O   GLU A   1      22.557  -3.939  16.286  0.00  0.00    -0.287 OA
ENDBRANCH   1   4
BRANCH   1   6
ATOM      6  CB  GLU A   1      21.659  -4.045  13.438  0.00  0.00    +0.037 C 
BRANCH   6   7
ATOM      7  CG  GLU A   1      21.035  -4.566  12.159  0.00  0.00    +0.116 C 
BRANCH   7   8
ATOM      8  CD  GLU A   1      20.145  -3.560  11.443  0.00  0.00    +0.365 C 
ATOM      9  OE2 GLU A   1      19.991  -2.408  11.912  0.00  0.00    -0.246 OA
ATOM     10  OE1 GLU A   1      19.602  -3.929  10.387  0.00  0.00    -0.246 OA
ENDBRANCH   7   8
ENDBRANCH   6   7
ENDBRANCH   1   6
TORSDOF 5
REMARK  Name = ../refined-set-2016/3gtc/3gtc_pocket.pdb
REMARK  120 active torsions:
REMARK  status: ('A' for Active; 'I' for Inactive)
REMARK    1  A    between atoms: _1  and  _3
REMARK    2  A    between atoms: _3  and  _4
REMARK    3  A    between atoms: _3  and  _6
REMARK    4  A    between atoms: _6  and  _7
REMARK    5  A    between atoms: _7  and  _8
REMARK    6  A    between atoms: _11  and  _13
REMARK    7  A    between atoms: _13  and  _14
REMARK    8  A    between atoms: _16  and  _18
REMARK    9  A    between atoms: _18  and  _19
REMARK   10  A    between atoms: _18  and  _21
REMARK   11  A    between atoms: _21  and  _22
REMARK   12  A    between atoms: _24  and  _26
REMARK   13  A    between atoms: _26  and  _27
REMARK   14  A    between atoms: _26  and  _29
REMARK   15  A    between atoms: _29  and  _30
REMARK   16  A    between atoms: _30  and  _31
REMARK   17  A    between atoms: _31  and  _32
REMARK   18  A    between atoms: _32  and  _33
REMARK   19  A    between atoms: _37  and  _39
REMARK   20  A    between atoms: _39  and  _40
REMARK   21  A    between atoms: _39  and  _42
REMARK   22  A    between atoms: _42  and  _43
REMARK   23  A    between atoms: _46  and  _48
REMARK   24  A    between atoms: _48  and  _49
REMARK   25  A    between atoms: _48  and  _51
REMARK   26  A    between atoms: _51  and  _52
REMARK   27  A    between atoms: _52  and  _53
REMARK   28  A    between atoms: _58  and  _60
REMARK   29  A    between atoms: _60  and  _61
REMARK   30  A    between atoms: _60  and  _63
REMARK   31  A    between atoms: _66  and  _68
REMARK   32  A    between atoms: _68  and  _69
REMARK   33  A    between atoms: _68  and  _71
REMARK   34  A    between atoms: _71  and  _72
REMARK   35  A    between atoms: _75  and  _77
REMARK   36  A    between atoms: _77  and  _78
REMARK   37  A    between atoms: _77  and  _80
REMARK   38  A    between atoms: _80  and  _81
REMARK   39  A    between atoms: _86  and  _87
REMARK   40  A    between atoms: _89  and  _91
REMARK   41  A    between atoms: _91  and  _92
REMARK   42  A    between atoms: _91  and  _94
REMARK   43  A    between atoms: _94  and  _95
REMARK   44  A    between atoms: _100  and  _102
REMARK   45  A    between atoms: _102  and  _103
REMARK   46  A    between atoms: _102  and  _105
REMARK   47  A    between atoms: _105  and  _106
REMARK   48  A    between atoms: _111  and  _112
REMARK   49  A    between atoms: _114  and  _116
REMARK   50  A    between atoms: _116  and  _117
REMARK   51  A    between atoms: _119  and  _121
REMARK   52  A    between atoms: _121  and  _122
REMARK   53  A    between atoms: _121  and  _124
REMARK   54  A    between atoms: _124  and  _125
REMARK   55  A    between atoms: _130  and  _131
REMARK   56  A    between atoms: _133  and  _135
REMARK   57  A    between atoms: _135  and  _136
REMARK   58  A    between atoms: _135  and  _138
REMARK   59  A    between atoms: _138  and  _139
REMARK   60  A    between atoms: _139  and  _140
REMARK   61  A    between atoms: _140  and  _141
REMARK   62  A    between atoms: _150  and  _152
REMARK   63  A    between atoms: _152  and  _153
REMARK   64  A    between atoms: _152  and  _155
REMARK   65  A    between atoms: _155  and  _156
REMARK   66  A    between atoms: _156  and  _157
REMARK   67  A    between atoms: _157  and  _158
REMARK   68  A    between atoms: _158  and  _159
REMARK   69  A    between atoms: _163  and  _165
REMARK   70  A    between atoms: _165  and  _166
REMARK   71  A    between atoms: _169  and  _171
REMARK   72  A    between atoms: _171  and  _172
REMARK   73  A    between atoms: _171  and  _174
REMARK   74  A    between atoms: _177  and  _179
REMARK   75  A    between atoms: _179  and  _180
REMARK   76  A    between atoms: _179  and  _182
REMARK   77  A    between atoms: _182  and  _183
REMARK   78  A    between atoms: _188  and  _190
REMARK   79  A    between atoms: _190  and  _191
REMARK   80  A    between atoms: _190  and  _193
REMARK   81  A    between atoms: _196  and  _198
REMARK   82  A    between atoms: _198  and  _199
REMARK   83  A    between atoms: _198  and  _201
REMARK   84  A    between atoms: _201  and  _202
REMARK   85  A    between atoms: _205  and  _206
REMARK   86  A    between atoms: _211  and  _213
REMARK   87  A    between atoms: _213  and  _214
REMARK   88  A    between atoms: _216  and  _218
REMARK   89  A    between atoms: _218  and  _219
REMARK   90  A    between atoms: _222  and  _224
REMARK   91  A    between atoms: _224  and  _225
REMARK   92  A    between atoms: _224  and  _227
REMARK   93  A    between atoms: _227  and  _228
REMARK   94  A    between atoms: _231  and  _233
REMARK   95  A    between atoms: _233  and  _234
REMARK   96  A    between atoms: _237  and  _239
REMARK   97  A    between atoms: _239  and  _240
REMARK   98  A    between atoms: _239  and  _242
REMARK   99  A    between atoms: _242  and  _243
REMARK  100  A    between atoms: _248  and  _249
REMARK  101  A    between atoms: _251  and  _253
REMARK  102  A    between atoms: _253  and  _254
REMARK  103  A    between atoms: _256  and  _258
REMARK  104  A    between atoms: _258  and  _259
REMARK  105  A    between atoms: _262  and  _264
REMARK  106  A    between atoms: _264  and  _265
REMARK  107  A    between atoms: _264  and  _267
REMARK  108  A    between atoms: _267  and  _268
REMARK  109  A    between atoms: _271  and  _273
REMARK  110  A    between atoms: _273  and  _274
REMARK  111  A    between atoms: _276  and  _278
REMARK  112  A    between atoms: _278  and  _279
REMARK  113  A    between atoms: _281  and  _283
REMARK  114  A    between atoms: _283  and  _284
REMARK  115  A    between atoms: _283  and  _286
REMARK  116  A    between atoms: _286  and  _287
REMARK  117  A    between atoms: _293  and  _295
REMARK  118  A    between atoms: _295  and  _296
REMARK  119  A    between atoms: _295  and  _298
REMARK  120  A    between atoms: _298  and  _299
REMARK                            x       y       z     vdW  Elec       q    Type
REMARK                         _______ _______ _______ _____ _____    ______ ____
ROOT
ATOM      1  C   GLY A   1      26.763   0.033  15.388  0.00  0.00    +0.240 C 
ATOM      2  N   SER A   2      26.920   1.076  16.194  0.00  0.00    -0.296 N 
ATOM      3  H   SER A   2      26.089   1.491  16.661  0.00  0.00    +0.150 HD
ATOM      4  O   GLY A   1      27.709  -0.625  14.948  0.00  0.00    -0.274 OA
ENDROOT
BRANCH   1   5
ATOM      5  CA  GLY A   1      25.339  -0.360  15.064  0.00  0.00    +0.169 C 
BRANCH   5   6
ATOM      6  N   GLY A   1      25.183  -1.784  15.233  0.00  0.00    -0.236 NA
ATOM      7  H   GLY A   1      24.854  -2.360  14.432  0.00  0.00    +0.142 HD
ENDBRANCH   5   6
ENDBRANCH   1   5
BRANCH   2   8
ATOM      8  CA  SER A   2      28.236   1.649  16.435  0.00  0.00    +0.166 C 
BRANCH   8   9
ATOM      9  C   SER A   2      29.155   0.781  17.298  0.00  0.00    +0.229 C 
ATOM     10  O   SER A   2      30.335   1.076  17.393  0.00  0.00    -0.286 OA
ENDBRANCH   8   9
BRANCH   8  11
ATOM     11  CB  SER A   2      28.116   3.039  17.047  0.00  0.00    +0.165 C 
BRANCH  11  12
ATOM     12  OG  SER A   2      27.595   3.945  16.095  0.00  0.00    -0.380 OA
ATOM     13  H   SER A   2      27.521   4.844  16.503  0.00  0.00    +0.211 HD
ENDBRANCH  11  12
ENDBRANCH   8  11
ENDBRANCH   2   8
TORSDOF 6
REMARK  Name = ../refined-set-2016/3gtc/3gtc_pocket.pdb
REMARK  120 active torsions:
REMARK  status: ('A' for Active; 'I' for Inactive)
REMARK    1  A    between atoms: _1  and  _3
REMARK    2  A    between atoms: _3  and  _4
REMARK    3  A    between atoms: _3  and  _6
REMARK    4  A    between atoms: _6  and  _7
REMARK    5  A    between atoms: _7  and  _8
REMARK    6  A    between atoms: _11  and  _13
REMARK    7  A    between atoms: _13  and  _14
REMARK    8  A    between atoms: _16  and  _18
REMARK    9  A    between atoms: _18  and  _19
REMARK   10  A    between atoms: _18  and  _21
REMARK   11  A    between atoms: _21  and  _22
REMARK   12  A    between atoms: _24  and  _26
REMARK   13  A    between atoms: _26  and  _27
REMARK   14  A    between atoms: _26  and  _29
REMARK   15  A    between atoms: _29  and  _30
REMARK   16  A    between atoms: _30  and  _31
REMARK   17  A    between atoms: _31  and  _32
REMARK   18  A    between atoms: _32  and  _33
REMARK   19  A    between atoms: _37  and  _39
REMARK   20  A    between atoms: _39  and  _40
REMARK   21  A    between atoms: _39  and  _42
REMARK   22  A    between atoms: _42  and  _43
REMARK   23  A    between atoms: _46  and  _48
REMARK   24  A    between atoms: _48  and  _49
REMARK   25  A    between atoms: _48  and  _51
REMARK   26  A    between atoms: _51  and  _52
REMARK   27  A    between atoms: _52  and  _53
REMARK   28  A    between atoms: _58  and  _60
REMARK   29  A    between atoms: _60  and  _61
REMARK   30  A    between atoms: _60  and  _63
REMARK   31  A    between atoms: _66  and  _68
REMARK   32  A    between atoms: _68  and  _69
REMARK   33  A    between atoms: _68  and  _71
REMARK   34  A    between atoms: _71  and  _72
REMARK   35  A    between atoms: _75  and  _77
REMARK   36  A    between atoms: _77  and  _78
REMARK   37  A    between atoms: _77  and  _80
REMARK   38  A    between atoms: _80  and  _81
REMARK   39  A    between atoms: _86  and  _87
REMARK   40  A    between atoms: _89  and  _91
REMARK   41  A    between atoms: _91  and  _92
REMARK   42  A    between atoms: _91  and  _94
REMARK   43  A    between atoms: _94  and  _95
REMARK   44  A    between atoms: _100  and  _102
REMARK   45  A    between atoms: _102  and  _103
REMARK   46  A    between atoms: _102  and  _105
REMARK   47  A    between atoms: _105  and  _106
REMARK   48  A    between atoms: _111  and  _112
REMARK   49  A    between atoms: _114  and  _116
REMARK   50  A    between atoms: _116  and  _117
REMARK   51  A    between atoms: _119  and  _121
REMARK   52  A    between atoms: _121  and  _122
REMARK   53  A    between atoms: _121  and  _124
REMARK   54  A    between atoms: _124  and  _125
REMARK   55  A    between atoms: _130  and  _131
REMARK   56  A    between atoms: _133  and  _135
REMARK   57  A    between atoms: _135  and  _136
REMARK   58  A    between atoms: _135  and  _138
REMARK   59  A    between atoms: _138  and  _139
REMARK   60  A    between atoms: _139  and  _140
REMARK   61  A    between atoms: _140  and  _141
REMARK   62  A    between atoms: _150  and  _152
REMARK   63  A    between atoms: _152  and  _153
REMARK   64  A    between atoms: _152  and  _155
REMARK   65  A    between atoms: _155  and  _156
REMARK   66  A    between atoms: _156  and  _157
REMARK   67  A    between atoms: _157  and  _158
REMARK   68  A    between atoms: _158  and  _159
REMARK   69  A    between atoms: _163  and  _165
REMARK   70  A    between atoms: _165  and  _166
REMARK   71  A    between atoms: _169  and  _171
REMARK   72  A    between atoms: _171  and  _172
REMARK   73  A    between atoms: _171  and  _174
REMARK   74  A    between atoms: _177  and  _179
REMARK   75  A    between atoms: _179  and  _180
REMARK   76  A    between atoms: _179  and  _182
REMARK   77  A    between atoms: _182  and  _183
REMARK   78  A    between atoms: _188  and  _190
REMARK   79  A    between atoms: _190  and  _191
REMARK   80  A    between atoms: _190  and  _193
REMARK   81  A    between atoms: _196  and  _198
REMARK   82  A    between atoms: _198  and  _199
REMARK   83  A    between atoms: _198  and  _201
REMARK   84  A    between atoms: _201  and  _202
REMARK   85  A    between atoms: _205  and  _206
REMARK   86  A    between atoms: _211  and  _213
REMARK   87  A    between atoms: _213  and  _214
REMARK   88  A    between atoms: _216  and  _218
REMARK   89  A    between atoms: _218  and  _219
REMARK   90  A    between atoms: _222  and  _224
REMARK   91  A    between atoms: _224  and  _225
REMARK   92  A    between atoms: _224  and  _227
REMARK   93  A    between atoms: _227  and  _228
REMARK   94  A    between atoms: _231  and  _233
REMARK   95  A    between atoms: _233  and  _234
REMARK   96  A    between atoms: _237  and  _239
REMARK   97  A    between atoms: _239  and  _240
REMARK   98  A    between atoms: _239  and  _242
REMARK   99  A    between atoms: _242  and  _243
REMARK  100  A    between atoms: _248  and  _249
REMARK  101  A    between atoms: _251  and  _253
REMARK  102  A    between atoms: _253  and  _254
REMARK  103  A    between atoms: _256  and  _258
REMARK  104  A    between atoms: _258  and  _259
REMARK  105  A    between atoms: _262  and  _264
REMARK  106  A    between atoms: _264  and  _265
REMARK  107  A    between atoms: _264  and  _267
REMARK  108  A    between atoms: _267  and  _268
REMARK  109  A    between atoms: _271  and  _273
REMARK  110  A    between atoms: _273  and  _274
REMARK  111  A    between atoms: _276  and  _278
REMARK  112  A    between atoms: _278  and  _279
REMARK  113  A    between atoms: _281  and  _283
REMARK  114  A    between atoms: _283  and  _284
REMARK  115  A    between atoms: _283  and  _286
REMARK  116  A    between atoms: _286  and  _287
REMARK  117  A    between atoms: _293  and  _295
REMARK  118  A    between atoms: _295  and  _296
REMARK  119  A    between atoms: _295  and  _298
REMARK  120  A    between atoms: _298  and  _299
REMARK                            x       y       z     vdW  Elec       q    Type
REMARK                         _______ _______ _______ _____ _____    ______ ____
ROOT
ATOM      1  CG  LYS A   1      32.460   2.839  15.359  0.00  0.00    -0.000 C 
ENDROOT
BRANCH   1   2
ATOM      2  CB  LYS A   1      33.270   1.942  16.286  0.00  0.00    +0.025 C 
BRANCH   2   3
ATOM      3  CA  LYS A   1      33.523   0.530  15.728  0.00  0.00    +0.133 C 
BRANCH   3   4
ATOM      4  N   LYS A   1      32.270  -0.245  15.655  0.00  0.00    -0.239 NA
ATOM      5  H   LYS A   1      31.393   0.165  16.035  0.00  0.00    +0.142 HD
ENDBRANCH   3   4
BRANCH   3   6
ATOM      6  C   LYS A   1      34.621  -0.162  16.540  0.00  0.00    +0.224 C 
ATOM      7  O   LYS A   1      35.801   0.078  16.310  0.00  0.00    -0.287 OA
ENDBRANCH   3   6
ENDBRANCH   2   3
ENDBRANCH   1   2
BRANCH   1   8
ATOM      8  CD  LYS A   1      32.060   4.124  16.044  0.00  0.00    -0.024 C 
BRANCH   8   9
ATOM      9  CE  LYS A   1      31.366   5.104  15.103  0.00  0.00    -0.086 C 
BRANCH   9  10
ATOM     10  NZ  LYS A   1      29.925   4.803  14.941  0.00  0.00    +0.380 N 
ATOM     11  HZ1 LYS A   1      29.455   4.857  15.867  0.00  0.00    -0.089 HD
ATOM     12  HZ2 LYS A   1      29.814   3.846  14.549  0.00  0.00    -0.089 HD
ATOM     13  HZ3 LYS A   1      29.498   5.496  14.293  0.00  0.00    -0.089 HD
ENDBRANCH   9  10
ENDBRANCH   8   9
ENDBRANCH   1   8
TORSDOF 7
REMARK  Name = ../refined-set-2016/3gtc/3gtc_pocket.pdb
REMARK  120 active torsions:
REMARK  status: ('A' for Active; 'I' for Inactive)
REMARK    1  A    between atoms: _1  and  _3
REMARK    2  A    between atoms: _3  and  _4
REMARK    3  A    between atoms: _3  and  _6
REMARK    4  A    between atoms: _6  and  _7
REMARK    5  A    between atoms: _7  and  _8
REMARK    6  A    between atoms: _11  and  _13
REMARK    7  A    between atoms: _13  and  _14
REMARK    8  A    between atoms: _16  and  _18
REMARK    9  A    between atoms: _18  and  _19
REMARK   10  A    between atoms: _18  and  _21
REMARK   11  A    between atoms: _21  and  _22
REMARK   12  A    between atoms: _24  and  _26
REMARK   13  A    between atoms: _26  and  _27
REMARK   14  A    between atoms: _26  and  _29
REMARK   15  A    between atoms: _29  and  _30
REMARK   16  A    between atoms: _30  and  _31
REMARK   17  A    between atoms: _31  and  _32
REMARK   18  A    between atoms: _32  and  _33
REMARK   19  A    between atoms: _37  and  _39
REMARK   20  A    between atoms: _39  and  _40
REMARK   21  A    between atoms: _39  and  _42
REMARK   22  A    between atoms: _42  and  _43
REMARK   23  A    between atoms: _46  and  _48
REMARK   24  A    between atoms: _48  and  _49
REMARK   25  A    between atoms: _48  and  _51
REMARK   26  A    between atoms: _51  and  _52
REMARK   27  A    between atoms: _52  and  _53
REMARK   28  A    between atoms: _58  and  _60
REMARK   29  A    between atoms: _60  and  _61
REMARK   30  A    between atoms: _60  and  _63
REMARK   31  A    between atoms: _66  and  _68
REMARK   32  A    between atoms: _68  and  _69
REMARK   33  A    between atoms: _68  and  _71
REMARK   34  A    between atoms: _71  and  _72
REMARK   35  A    between atoms: _75  and  _77
REMARK   36  A    between atoms: _77  and  _78
REMARK   37  A    between atoms: _77  and  _80
REMARK   38  A    between atoms: _80  and  _81
REMARK   39  A    between atoms: _86  and  _87
REMARK   40  A    between atoms: _89  and  _91
REMARK   41  A    between atoms: _91  and  _92
REMARK   42  A    between atoms: _91  and  _94
REMARK   43  A    between atoms: _94  and  _95
REMARK   44  A    between atoms: _100  and  _102
REMARK   45  A    between atoms: _102  and  _103
REMARK   46  A    between atoms: _102  and  _105
REMARK   47  A    between atoms: _105  and  _106
REMARK   48  A    between atoms: _111  and  _112
REMARK   49  A    between atoms: _114  and  _116
REMARK   50  A    between atoms: _116  and  _117
REMARK   51  A    between atoms: _119  and  _121
REMARK   52  A    between atoms: _121  and  _122
REMARK   53  A    between atoms: _121  and  _124
REMARK   54  A    between atoms: _124  and  _125
REMARK   55  A    between atoms: _130  and  _131
REMARK   56  A    between atoms: _133  and  _135
REMARK   57  A    between atoms: _135  and  _136
REMARK   58  A    between atoms: _135  and  _138
REMARK   59  A    between atoms: _138  and  _139
REMARK   60  A    between atoms: _139  and  _140
REMARK   61  A    between atoms: _140  and  _141
REMARK   62  A    between atoms: _150  and  _152
REMARK   63  A    between atoms: _152  and  _153
REMARK   64  A    between atoms: _152  and  _155
REMARK   65  A    between atoms: _155  and  _156
REMARK   66  A    between atoms: _156  and  _157
REMARK   67  A    between atoms: _157  and  _158
REMARK   68  A    between atoms: _158  and  _159
REMARK   69  A    between atoms: _163  and  _165
REMARK   70  A    between atoms: _165  and  _166
REMARK   71  A    between atoms: _169  and  _171
REMARK   72  A    between atoms: _171  and  _172
REMARK   73  A    between atoms: _171  and  _174
REMARK   74  A    between atoms: _177  and  _179
REMARK   75  A    between atoms: _179  and  _180
REMARK   76  A    between atoms: _179  and  _182
REMARK   77  A    between atoms: _182  and  _183
REMARK   78  A    between atoms: _188  and  _190
REMARK   79  A    between atoms: _190  and  _191
REMARK   80  A    between atoms: _190  and  _193
REMARK   81  A    between atoms: _196  and  _198
REMARK   82  A    between atoms: _198  and  _199
REMARK   83  A    between atoms: _198  and  _201
REMARK   84  A    between atoms: _201  and  _202
REMARK   85  A    between atoms: _205  and  _206
REMARK   86  A    between atoms: _211  and  _213
REMARK   87  A    between atoms: _213  and  _214
REMARK   88  A    between atoms: _216  and  _218
REMARK   89  A    between atoms: _218  and  _219
REMARK   90  A    between atoms: _222  and  _224
REMARK   91  A    between atoms: _224  and  _225
REMARK   92  A    between atoms: _224  and  _227
REMARK   93  A    between atoms: _227  and  _228
REMARK   94  A    between atoms: _231  and  _233
REMARK   95  A    between atoms: _233  and  _234
REMARK   96  A    between atoms: _237  and  _239
REMARK   97  A    between atoms: _239  and  _240
REMARK   98  A    between atoms: _239  and  _242
REMARK   99  A    between atoms: _242  and  _243
REMARK  100  A    between atoms: _248  and  _249
REMARK  101  A    between atoms: _251  and  _253
REMARK  102  A    between atoms: _253  and  _254
REMARK  103  A    between atoms: _256  and  _258
REMARK  104  A    between atoms: _258  and  _259
REMARK  105  A    between atoms: _262  and  _264
REMARK  106  A    between atoms: _264  and  _265
REMARK  107  A    between atoms: _264  and  _267
REMARK  108  A    between atoms: _267  and  _268
REMARK  109  A    between atoms: _271  and  _273
REMARK  110  A    between atoms: _273  and  _274
REMARK  111  A    between atoms: _276  and  _278
REMARK  112  A    between atoms: _278  and  _279
REMARK  113  A    between atoms: _281  and  _283
REMARK  114  A    between atoms: _283  and  _284
REMARK  115  A    between atoms: _283  and  _286
REMARK  116  A    between atoms: _286  and  _287
REMARK  117  A    between atoms: _293  and  _295
REMARK  118  A    between atoms: _295  and  _296
REMARK  119  A    between atoms: _295  and  _298
REMARK  120  A    between atoms: _298  and  _299
REMARK                            x       y       z     vdW  Elec       q    Type
REMARK                         _______ _______ _______ _____ _____    ______ ____
ROOT
ATOM      1  CA  GLN A   2      26.917  11.568   9.752  0.00  0.00    +0.149 C 
ENDROOT
BRANCH   1   4
ATOM      2  C   LEU A   1      28.219  11.821  11.818  0.00  0.00    +0.238 C 
ATOM      3  O   LEU A   1      28.577  10.650  11.835  0.00  0.00    -0.274 OA
ATOM      4  N   GLN A   2      27.473  12.354  10.850  0.00  0.00    -0.297 N 
ATOM      5  H   GLN A   2      27.278  13.375  10.878  0.00  0.00    +0.150 HD
BRANCH   2   6
ATOM      6  CA  LEU A   1      28.624  12.757  12.940  0.00  0.00    +0.145 C 
BRANCH   6   7
ATOM      7  N   LEU A   1      29.203  13.978  12.412  0.00  0.00    -0.238 NA
ATOM      8  H   LEU A   1      28.842  14.892  12.754  0.00  0.00    +0.142 HD
ENDBRANCH   6   7
BRANCH   6   9
ATOM      9  CB  LEU A   1      27.414  13.071  13.817  0.00  0.00    +0.026 C 
BRANCH   9  10
ATOM     10  CG  LEU A   1      26.679  11.876  14.426  0.00  0.00    +0.002 C 
ATOM     11  CD2 LEU A   1      25.592  12.377  15.385  0.00  0.00    +0.000 C 
ATOM     12  CD1 LEU A   1      27.641  10.926  15.137  0.00  0.00    +0.000 C 
ENDBRANCH   9  10
ENDBRANCH   6   9
ENDBRANCH   2   6
ENDBRANCH   1   4
BRANCH   1  13
ATOM     13  C   GLN A   2      27.576  11.948   8.425  0.00  0.00    +0.241 C 
ATOM     14  O   GLN A   2      27.777  13.133   8.138  0.00  0.00    -0.273 OA
ATOM     15  N   VAL A   3      27.922  10.942   7.626  0.00  0.00    -0.298 N 
ATOM     16  H   VAL A   3      27.967   9.977   8.010  0.00  0.00    +0.150 HD
BRANCH  15  17
ATOM     17  CA  VAL A   3      28.239  11.169   6.220  0.00  0.00    +0.137 C 
BRANCH  17  18
ATOM     18  CB  VAL A   3      28.863   9.925   5.552  0.00  0.00    +0.026 C 
ATOM     19  CG2 VAL A   3      30.194   9.580   6.205  0.00  0.00    +0.002 C 
ATOM     20  CG1 VAL A   3      29.058  10.159   4.063  0.00  0.00    +0.002 C 
ENDBRANCH  17  18
BRANCH  17  21
ATOM     21  C   VAL A   3      26.924  11.527   5.521  0.00  0.00    +0.227 C 
ATOM     22  O   VAL A   3      25.933  10.799   5.657  0.00  0.00    -0.286 OA
ENDBRANCH  17  21
ENDBRANCH  15  17
ENDBRANCH   1  13
BRANCH   1  23
ATOM     23  CB  GLN A   2      25.394  11.805   9.629  0.00  0.00    +0.039 C 
BRANCH  23  24
ATOM     24  CG  GLN A   2      24.556  11.555  10.918  0.00  0.00    +0.087 C 
BRANCH  24  25
ATOM     25  CD  GLN A   2      23.804  12.786  11.466  0.00  0.00    +0.219 C 
ATOM     26  OE1 GLN A   2      22.675  12.656  11.950  0.00  0.00    -0.275 OA
ATOM     27  NE2 GLN A   2      24.422  13.962  11.409  0.00  0.00    -0.329 N 
ATOM     28 HE21 GLN A   2      23.954  14.814  11.780  0.00  0.00    +0.145 HD
ATOM     29 HE22 GLN A   2      25.373  14.030  10.994  0.00  0.00    +0.145 HD
ENDBRANCH  24  25
ENDBRANCH  23  24
ENDBRANCH   1  23
TORSDOF 12
REMARK  Name = ../refined-set-2016/3gtc/3gtc_pocket.pdb
REMARK  120 active torsions:
REMARK  status: ('A' for Active; 'I' for Inactive)
REMARK    1  A    between atoms: _1  and  _3
REMARK    2  A    between atoms: _3  and  _4
REMARK    3  A    between atoms: _3  and  _6
REMARK    4  A    between atoms: _6  and  _7
REMARK    5  A    between atoms: _7  and  _8
REMARK    6  A    between atoms: _11  and  _13
REMARK    7  A    between atoms: _13  and  _14
REMARK    8  A    between atoms: _16  and  _18
REMARK    9  A    between atoms: _18  and  _19
REMARK   10  A    between atoms: _18  and  _21
REMARK   11  A    between atoms: _21  and  _22
REMARK   12  A    between atoms: _24  and  _26
REMARK   13  A    between atoms: _26  and  _27
REMARK   14  A    between atoms: _26  and  _29
REMARK   15  A    between atoms: _29  and  _30
REMARK   16  A    between atoms: _30  and  _31
REMARK   17  A    between atoms: _31  and  _32
REMARK   18  A    between atoms: _32  and  _33
REMARK   19  A    between atoms: _37  and  _39
REMARK   20  A    between atoms: _39  and  _40
REMARK   21  A    between atoms: _39  and  _42
REMARK   22  A    between atoms: _42  and  _43
REMARK   23  A    between atoms: _46  and  _48
REMARK   24  A    between atoms: _48  and  _49
REMARK   25  A    between atoms: _48  and  _51
REMARK   26  A    between atoms: _51  and  _52
REMARK   27  A    between atoms: _52  and  _53
REMARK   28  A    between atoms: _58  and  _60
REMARK   29  A    between atoms: _60  and  _61
REMARK   30  A    between atoms: _60  and  _63
REMARK   31  A    between atoms: _66  and  _68
REMARK   32  A    between atoms: _68  and  _69
REMARK   33  A    between atoms: _68  and  _71
REMARK   34  A    between atoms: _71  and  _72
REMARK   35  A    between atoms: _75  and  _77
REMARK   36  A    between atoms: _77  and  _78
REMARK   37  A    between atoms: _77  and  _80
REMARK   38  A    between atoms: _80  and  _81
REMARK   39  A    between atoms: _86  and  _87
REMARK   40  A    between atoms: _89  and  _91
REMARK   41  A    between atoms: _91  and  _92
REMARK   42  A    between atoms: _91  and  _94
REMARK   43  A    between atoms: _94  and  _95
REMARK   44  A    between atoms: _100  and  _102
REMARK   45  A    between atoms: _102  and  _103
REMARK   46  A    between atoms: _102  and  _105
REMARK   47  A    between atoms: _105  and  _106
REMARK   48  A    between atoms: _111  and  _112
REMARK   49  A    between atoms: _114  and  _116
REMARK   50  A    between atoms: _116  and  _117
REMARK   51  A    between atoms: _119  and  _121
REMARK   52  A    between atoms: _121  and  _122
REMARK   53  A    between atoms: _121  and  _124
REMARK   54  A    between atoms: _124  and  _125
REMARK   55  A    between atoms: _130  and  _131
REMARK   56  A    between atoms: _133  and  _135
REMARK   57  A    between atoms: _135  and  _136
REMARK   58  A    between atoms: _135  and  _138
REMARK   59  A    between atoms: _138  and  _139
REMARK   60  A    between atoms: _139  and  _140
REMARK   61  A    between atoms: _140  and  _141
REMARK   62  A    between atoms: _150  and  _152
REMARK   63  A    between atoms: _152  and  _153
REMARK   64  A    between atoms: _152  and  _155
REMARK   65  A    between atoms: _155  and  _156
REMARK   66  A    between atoms: _156  and  _157
REMARK   67  A    between atoms: _157  and  _158
REMARK   68  A    between atoms: _158  and  _159
REMARK   69  A    between atoms: _163  and  _165
REMARK   70  A    between atoms: _165  and  _166
REMARK   71  A    between atoms: _169  and  _171
REMARK   72  A    between atoms: _171  and  _172
REMARK   73  A    between atoms: _171  and  _174
REMARK   74  A    between atoms: _177  and  _179
REMARK   75  A    between atoms: _179  and  _180
REMARK   76  A    between atoms: _179  and  _182
REMARK   77  A    between atoms: _182  and  _183
REMARK   78  A    between atoms: _188  and  _190
REMARK   79  A    between atoms: _190  and  _191
REMARK   80  A    between atoms: _190  and  _193
REMARK   81  A    between atoms: _196  and  _198
REMARK   82  A    between atoms: _198  and  _199
REMARK   83  A    between atoms: _198  and  _201
REMARK   84  A    between atoms: _201  and  _202
REMARK   85  A    between atoms: _205  and  _206
REMARK   86  A    between atoms: _211  and  _213
REMARK   87  A    between atoms: _213  and  _214
REMARK   88  A    between atoms: _216  and  _218
REMARK   89  A    between atoms: _218  and  _219
REMARK   90  A    between atoms: _222  and  _224
REMARK   91  A    between atoms: _224  and  _225
REMARK   92  A    between atoms: _224  and  _227
REMARK   93  A    between atoms: _227  and  _228
REMARK   94  A    between atoms: _231  and  _233
REMARK   95  A    between atoms: _233  and  _234
REMARK   96  A    between atoms: _237  and  _239
REMARK   97  A    between atoms: _239  and  _240
REMARK   98  A    between atoms: _239  and  _242
REMARK   99  A    between atoms: _242  and  _243
REMARK  100  A    between atoms: _248  and  _249
REMARK  101  A    between atoms: _251  and  _253
REMARK  102  A    between atoms: _253  and  _254
REMARK  103  A    between atoms: _256  and  _258
REMARK  104  A    between atoms: _258  and  _259
REMARK  105  A    between atoms: _262  and  _264
REMARK  106  A    between atoms: _264  and  _265
REMARK  107  A    between atoms: _264  and  _267
REMARK  108  A    between atoms: _267  and  _268
REMARK  109  A    between atoms: _271  and  _273
REMARK  110  A    between atoms: _273  and  _274
REMARK  111  A    between atoms: _276  and  _278
REMARK  112  A    between atoms: _278  and  _279
REMARK  113  A    between atoms: _281  and  _283
REMARK  114  A    between atoms: _283  and  _284
REMARK  115  A    between atoms: _283  and  _286
REMARK  116  A    between atoms: _286  and  _287
REMARK  117  A    between atoms: _293  and  _295
REMARK  118  A    between atoms: _295  and  _296
REMARK  119  A    between atoms: _295  and  _298
REMARK  120  A    between atoms: _298  and  _299
REMARK                            x       y       z     vdW  Elec       q    Type
REMARK                         _______ _______ _______ _____ _____    ______ ____
ROOT
ATOM      1  CA  ASP A   1      23.043  10.749   2.429  0.00  0.00    +0.144 C 
ENDROOT
BRANCH   1   2
ATOM      2  N   ASP A   1      23.736  11.762   3.247  0.00  0.00    -0.239 NA
ATOM      3  H   ASP A   1      23.165  12.404   3.833  0.00  0.00    +0.142 HD
ENDBRANCH   1   2
BRANCH   1   4
ATOM      4  C   ASP A   1      23.388  10.809   0.945  0.00  0.00    +0.225 C 
ATOM      5  O   ASP A   1      23.345   9.795   0.251  0.00  0.00    -0.287 OA
ENDBRANCH   1   4
BRANCH   1   6
ATOM      6  CB  ASP A   1      21.520  10.905   2.555  0.00  0.00    +0.139 C 
BRANCH   6   7
ATOM      7  CG  ASP A   1      20.918   9.982   3.589  0.00  0.00    +0.367 C 
ATOM      8  OD2 ASP A   1      20.138  10.473   4.435  0.00  0.00    -0.246 OA
ATOM      9  OD1 ASP A   1      21.208   8.763   3.548  0.00  0.00    -0.246 OA
ENDBRANCH   6   7
ENDBRANCH   1   6
TORSDOF 4
REMARK  Name = ../refined-set-2016/3gtc/3gtc_pocket.pdb
REMARK  120 active torsions:
REMARK  status: ('A' for Active; 'I' for Inactive)
REMARK    1  A    between atoms: _1  and  _3
REMARK    2  A    between atoms: _3  and  _4
REMARK    3  A    between atoms: _3  and  _6
REMARK    4  A    between atoms: _6  and  _7
REMARK    5  A    between atoms: _7  and  _8
REMARK    6  A    between atoms: _11  and  _13
REMARK    7  A    between atoms: _13  and  _14
REMARK    8  A    between atoms: _16  and  _18
REMARK    9  A    between atoms: _18  and  _19
REMARK   10  A    between atoms: _18  and  _21
REMARK   11  A    between atoms: _21  and  _22
REMARK   12  A    between atoms: _24  and  _26
REMARK   13  A    between atoms: _26  and  _27
REMARK   14  A    between atoms: _26  and  _29
REMARK   15  A    between atoms: _29  and  _30
REMARK   16  A    between atoms: _30  and  _31
REMARK   17  A    between atoms: _31  and  _32
REMARK   18  A    between atoms: _32  and  _33
REMARK   19  A    between atoms: _37  and  _39
REMARK   20  A    between atoms: _39  and  _40
REMARK   21  A    between atoms: _39  and  _42
REMARK   22  A    between atoms: _42  and  _43
REMARK   23  A    between atoms: _46  and  _48
REMARK   24  A    between atoms: _48  and  _49
REMARK   25  A    between atoms: _48  and  _51
REMARK   26  A    between atoms: _51  and  _52
REMARK   27  A    between atoms: _52  and  _53
REMARK   28  A    between atoms: _58  and  _60
REMARK   29  A    between atoms: _60  and  _61
REMARK   30  A    between atoms: _60  and  _63
REMARK   31  A    between atoms: _66  and  _68
REMARK   32  A    between atoms: _68  and  _69
REMARK   33  A    between atoms: _68  and  _71
REMARK   34  A    between atoms: _71  and  _72
REMARK   35  A    between atoms: _75  and  _77
REMARK   36  A    between atoms: _77  and  _78
REMARK   37  A    between atoms: _77  and  _80
REMARK   38  A    between atoms: _80  and  _81
REMARK   39  A    between atoms: _86  and  _87
REMARK   40  A    between atoms: _89  and  _91
REMARK   41  A    between atoms: _91  and  _92
REMARK   42  A    between atoms: _91  and  _94
REMARK   43  A    between atoms: _94  and  _95
REMARK   44  A    between atoms: _100  and  _102
REMARK   45  A    between atoms: _102  and  _103
REMARK   46  A    between atoms: _102  and  _105
REMARK   47  A    between atoms: _105  and  _106
REMARK   48  A    between atoms: _111  and  _112
REMARK   49  A    between atoms: _114  and  _116
REMARK   50  A    between atoms: _116  and  _117
REMARK   51  A    between atoms: _119  and  _121
REMARK   52  A    between atoms: _121  and  _122
REMARK   53  A    between atoms: _121  and  _124
REMARK   54  A    between atoms: _124  and  _125
REMARK   55  A    between atoms: _130  and  _131
REMARK   56  A    between atoms: _133  and  _135
REMARK   57  A    between atoms: _135  and  _136
REMARK   58  A    between atoms: _135  and  _138
REMARK   59  A    between atoms: _138  and  _139
REMARK   60  A    between atoms: _139  and  _140
REMARK   61  A    between atoms: _140  and  _141
REMARK   62  A    between atoms: _150  and  _152
REMARK   63  A    between atoms: _152  and  _153
REMARK   64  A    between atoms: _152  and  _155
REMARK   65  A    between atoms: _155  and  _156
REMARK   66  A    between atoms: _156  and  _157
REMARK   67  A    between atoms: _157  and  _158
REMARK   68  A    between atoms: _158  and  _159
REMARK   69  A    between atoms: _163  and  _165
REMARK   70  A    between atoms: _165  and  _166
REMARK   71  A    between atoms: _169  and  _171
REMARK   72  A    between atoms: _171  and  _172
REMARK   73  A    between atoms: _171  and  _174
REMARK   74  A    between atoms: _177  and  _179
REMARK   75  A    between atoms: _179  and  _180
REMARK   76  A    between atoms: _179  and  _182
REMARK   77  A    between atoms: _182  and  _183
REMARK   78  A    between atoms: _188  and  _190
REMARK   79  A    between atoms: _190  and  _191
REMARK   80  A    between atoms: _190  and  _193
REMARK   81  A    between atoms: _196  and  _198
REMARK   82  A    between atoms: _198  and  _199
REMARK   83  A    between atoms: _198  and  _201
REMARK   84  A    between atoms: _201  and  _202
REMARK   85  A    between atoms: _205  and  _206
REMARK   86  A    between atoms: _211  and  _213
REMARK   87  A    between atoms: _213  and  _214
REMARK   88  A    between atoms: _216  and  _218
REMARK   89  A    between atoms: _218  and  _219
REMARK   90  A    between atoms: _222  and  _224
REMARK   91  A    between atoms: _224  and  _225
REMARK   92  A    between atoms: _224  and  _227
REMARK   93  A    between atoms: _227  and  _228
REMARK   94  A    between atoms: _231  and  _233
REMARK   95  A    between atoms: _233  and  _234
REMARK   96  A    between atoms: _237  and  _239
REMARK   97  A    between atoms: _239  and  _240
REMARK   98  A    between atoms: _239  and  _242
REMARK   99  A    between atoms: _242  and  _243
REMARK  100  A    between atoms: _248  and  _249
REMARK  101  A    between atoms: _251  and  _253
REMARK  102  A    between atoms: _253  and  _254
REMARK  103  A    between atoms: _256  and  _258
REMARK  104  A    between atoms: _258  and  _259
REMARK  105  A    between atoms: _262  and  _264
REMARK  106  A    between atoms: _264  and  _265
REMARK  107  A    between atoms: _264  and  _267
REMARK  108  A    between atoms: _267  and  _268
REMARK  109  A    between atoms: _271  and  _273
REMARK  110  A    between atoms: _273  and  _274
REMARK  111  A    between atoms: _276  and  _278
REMARK  112  A    between atoms: _278  and  _279
REMARK  113  A    between atoms: _281  and  _283
REMARK  114  A    between atoms: _283  and  _284
REMARK  115  A    between atoms: _283  and  _286
REMARK  116  A    between atoms: _286  and  _287
REMARK  117  A    between atoms: _293  and  _295
REMARK  118  A    between atoms: _295  and  _296
REMARK  119  A    between atoms: _295  and  _298
REMARK  120  A    between atoms: _298  and  _299
REMARK                            x       y       z     vdW  Elec       q    Type
REMARK                         _______ _______ _______ _____ _____    ______ ____
ROOT
ATOM      1  CG  TYR A   1      30.782   9.429  18.532  0.00  0.00    -0.020 A 
ATOM      2  CD2 TYR A   1      31.527   8.368  19.039  0.00  0.00    -0.001 A 
ATOM      3  CE2 TYR A   1      31.161   7.051  18.790  0.00  0.00    +0.036 A 
ATOM      4  CZ  TYR A   1      30.041   6.795  18.023  0.00  0.00    +0.134 A 
ATOM      5  CE1 TYR A   1      29.294   7.834  17.493  0.00  0.00    +0.036 A 
ATOM      6  CD1 TYR A   1      29.660   9.139  17.765  0.00  0.00    -0.001 A 
ENDROOT
BRANCH   4   7
ATOM      7  OH  TYR A   1      29.661   5.507  17.785  0.00  0.00    -0.506 OA
ATOM      8  HH  TYR A   1      28.846   5.503  17.223  0.00  0.00    +0.292 HD
ENDBRANCH   4   7
BRANCH   1   9
ATOM      9  CB  TYR A   1      31.172  10.857  18.821  0.00  0.00    +0.051 C 
BRANCH   9  10
ATOM     10  CA  TYR A   1      32.157  11.485  17.848  0.00  0.00    +0.137 C 
BRANCH  10  11
ATOM     11  N   TYR A   1      32.507  12.830  18.313  0.00  0.00    -0.239 NA
ATOM     12  H   TYR A   1      32.181  13.125  19.255  0.00  0.00    +0.142 HD
ENDBRANCH  10  11
BRANCH  10  13
ATOM     13  C   TYR A   1      31.557  11.564  16.449  0.00  0.00    +0.224 C 
ATOM     14  O   TYR A   1      30.664  12.380  16.190  0.00  0.00    -0.287 OA
ENDBRANCH  10  13
ENDBRANCH   9  10
ENDBRANCH   1   9
TORSDOF 5
REMARK  Name = ../refined-set-2016/3gtc/3gtc_pocket.pdb
REMARK  120 active torsions:
REMARK  status: ('A' for Active; 'I' for Inactive)
REMARK    1  A    between atoms: _1  and  _3
REMARK    2  A    between atoms: _3  and  _4
REMARK    3  A    between atoms: _3  and  _6
REMARK    4  A    between atoms: _6  and  _7
REMARK    5  A    between atoms: _7  and  _8
REMARK    6  A    between atoms: _11  and  _13
REMARK    7  A    between atoms: _13  and  _14
REMARK    8  A    between atoms: _16  and  _18
REMARK    9  A    between atoms: _18  and  _19
REMARK   10  A    between atoms: _18  and  _21
REMARK   11  A    between atoms: _21  and  _22
REMARK   12  A    between atoms: _24  and  _26
REMARK   13  A    between atoms: _26  and  _27
REMARK   14  A    between atoms: _26  and  _29
REMARK   15  A    between atoms: _29  and  _30
REMARK   16  A    between atoms: _30  and  _31
REMARK   17  A    between atoms: _31  and  _32
REMARK   18  A    between atoms: _32  and  _33
REMARK   19  A    between atoms: _37  and  _39
REMARK   20  A    between atoms: _39  and  _40
REMARK   21  A    between atoms: _39  and  _42
REMARK   22  A    between atoms: _42  and  _43
REMARK   23  A    between atoms: _46  and  _48
REMARK   24  A    between atoms: _48  and  _49
REMARK   25  A    between atoms: _48  and  _51
REMARK   26  A    between atoms: _51  and  _52
REMARK   27  A    between atoms: _52  and  _53
REMARK   28  A    between atoms: _58  and  _60
REMARK   29  A    between atoms: _60  and  _61
REMARK   30  A    between atoms: _60  and  _63
REMARK   31  A    between atoms: _66  and  _68
REMARK   32  A    between atoms: _68  and  _69
REMARK   33  A    between atoms: _68  and  _71
REMARK   34  A    between atoms: _71  and  _72
REMARK   35  A    between atoms: _75  and  _77
REMARK   36  A    between atoms: _77  and  _78
REMARK   37  A    between atoms: _77  and  _80
REMARK   38  A    between atoms: _80  and  _81
REMARK   39  A    between atoms: _86  and  _87
REMARK   40  A    between atoms: _89  and  _91
REMARK   41  A    between atoms: _91  and  _92
REMARK   42  A    between atoms: _91  and  _94
REMARK   43  A    between atoms: _94  and  _95
REMARK   44  A    between atoms: _100  and  _102
REMARK   45  A    between atoms: _102  and  _103
REMARK   46  A    between atoms: _102  and  _105
REMARK   47  A    between atoms: _105  and  _106
REMARK   48  A    between atoms: _111  and  _112
REMARK   49  A    between atoms: _114  and  _116
REMARK   50  A    between atoms: _116  and  _117
REMARK   51  A    between atoms: _119  and  _121
REMARK   52  A    between atoms: _121  and  _122
REMARK   53  A    between atoms: _121  and  _124
REMARK   54  A    between atoms: _124  and  _125
REMARK   55  A    between atoms: _130  and  _131
REMARK   56  A    between atoms: _133  and  _135
REMARK   57  A    between atoms: _135  and  _136
REMARK   58  A    between atoms: _135  and  _138
REMARK   59  A    between atoms: _138  and  _139
REMARK   60  A    between atoms: _139  and  _140
REMARK   61  A    between atoms: _140  and  _141
REMARK   62  A    between atoms: _150  and  _152
REMARK   63  A    between atoms: _152  and  _153
REMARK   64  A    between atoms: _152  and  _155
REMARK   65  A    between atoms: _155  and  _156
REMARK   66  A    between atoms: _156  and  _157
REMARK   67  A    between atoms: _157  and  _158
REMARK   68  A    between atoms: _158  and  _159
REMARK   69  A    between atoms: _163  and  _165
REMARK   70  A    between atoms: _165  and  _166
REMARK   71  A    between atoms: _169  and  _171
REMARK   72  A    between atoms: _171  and  _172
REMARK   73  A    between atoms: _171  and  _174
REMARK   74  A    between atoms: _177  and  _179
REMARK   75  A    between atoms: _179  and  _180
REMARK   76  A    between atoms: _179  and  _182
REMARK   77  A    between atoms: _182  and  _183
REMARK   78  A    between atoms: _188  and  _190
REMARK   79  A    between atoms: _190  and  _191
REMARK   80  A    between atoms: _190  and  _193
REMARK   81  A    between atoms: _196  and  _198
REMARK   82  A    between atoms: _198  and  _199
REMARK   83  A    between atoms: _198  and  _201
REMARK   84  A    between atoms: _201  and  _202
REMARK   85  A    between atoms: _205  and  _206
REMARK   86  A    between atoms: _211  and  _213
REMARK   87  A    between atoms: _213  and  _214
REMARK   88  A    between atoms: _216  and  _218
REMARK   89  A    between atoms: _218  and  _219
REMARK   90  A    between atoms: _222  and  _224
REMARK   91  A    between atoms: _224  and  _225
REMARK   92  A    between atoms: _224  and  _227
REMARK   93  A    between atoms: _227  and  _228
REMARK   94  A    between atoms: _231  and  _233
REMARK   95  A    between atoms: _233  and  _234
REMARK   96  A    between atoms: _237  and  _239
REMARK   97  A    between atoms: _239  and  _240
REMARK   98  A    between atoms: _239  and  _242
REMARK   99  A    between atoms: _242  and  _243
REMARK  100  A    between atoms: _248  and  _249
REMARK  101  A    between atoms: _251  and  _253
REMARK  102  A    between atoms: _253  and  _254
REMARK  103  A    between atoms: _256  and  _258
REMARK  104  A    between atoms: _258  and  _259
REMARK  105  A    between atoms: _262  and  _264
REMARK  106  A    between atoms: _264  and  _265
REMARK  107  A    between atoms: _264  and  _267
REMARK  108  A    between atoms: _267  and  _268
REMARK  109  A    between atoms: _271  and  _273
REMARK  110  A    between atoms: _273  and  _274
REMARK  111  A    between atoms: _276  and  _278
REMARK  112  A    between atoms: _278  and  _279
REMARK  113  A    between atoms: _281  and  _283
REMARK  114  A    between atoms: _283  and  _284
REMARK  115  A    between atoms: _283  and  _286
REMARK  116  A    between atoms: _286  and  _287
REMARK  117  A    between atoms: _293  and  _295
REMARK  118  A    between atoms: _295  and  _296
REMARK  119  A    between atoms: _295  and  _298
REMARK  120  A    between atoms: _298  and  _299
REMARK                            x       y       z     vdW  Elec       q    Type
REMARK                         _______ _______ _______ _____ _____    ______ ____
ROOT
ATOM      1  CB  ASN A   1      29.700   7.611  11.121  0.00  0.00    +0.110 C 
ENDROOT
BRANCH   1   2
ATOM      2  CG  ASN A   1      28.775   7.033  12.171  0.00  0.00    +0.221 C 
ATOM      3  OD1 ASN A   1      29.210   6.486  13.187  0.00  0.00    -0.275 OA
ATOM      4  ND2 ASN A   1      27.469   7.150  11.923  0.00  0.00    -0.329 N 
ATOM      5 HD21 ASN A   1      26.775   6.772  12.600  0.00  0.00    +0.145 HD
ATOM      6 HD22 ASN A   1      27.145   7.619  11.053  0.00  0.00    +0.145 HD
ENDBRANCH   1   2
BRANCH   1   7
ATOM      7  CA  ASN A   1      31.059   8.057  11.680  0.00  0.00    +0.142 C 
BRANCH   7   8
ATOM      8  N   ASN A   1      30.939   9.182  12.605  0.00  0.00    -0.239 NA
ATOM      9  H   ASN A   1      30.019   9.655  12.713  0.00  0.00    +0.142 HD
ENDBRANCH   7   8
BRANCH   7  10
ATOM     10  C   ASN A   1      31.976   8.406  10.512  0.00  0.00    +0.225 C 
ATOM     11  O   ASN A   1      32.644   7.534   9.973  0.00  0.00    -0.287 OA
ENDBRANCH   7  10
ENDBRANCH   1   7
TORSDOF 4
REMARK  Name = ../refined-set-2016/3gtc/3gtc_pocket.pdb
REMARK  120 active torsions:
REMARK  status: ('A' for Active; 'I' for Inactive)
REMARK    1  A    between atoms: _1  and  _3
REMARK    2  A    between atoms: _3  and  _4
REMARK    3  A    between atoms: _3  and  _6
REMARK    4  A    between atoms: _6  and  _7
REMARK    5  A    between atoms: _7  and  _8
REMARK    6  A    between atoms: _11  and  _13
REMARK    7  A    between atoms: _13  and  _14
REMARK    8  A    between atoms: _16  and  _18
REMARK    9  A    between atoms: _18  and  _19
REMARK   10  A    between atoms: _18  and  _21
REMARK   11  A    between atoms: _21  and  _22
REMARK   12  A    between atoms: _24  and  _26
REMARK   13  A    between atoms: _26  and  _27
REMARK   14  A    between atoms: _26  and  _29
REMARK   15  A    between atoms: _29  and  _30
REMARK   16  A    between atoms: _30  and  _31
REMARK   17  A    between atoms: _31  and  _32
REMARK   18  A    between atoms: _32  and  _33
REMARK   19  A    between atoms: _37  and  _39
REMARK   20  A    between atoms: _39  and  _40
REMARK   21  A    between atoms: _39  and  _42
REMARK   22  A    between atoms: _42  and  _43
REMARK   23  A    between atoms: _46  and  _48
REMARK   24  A    between atoms: _48  and  _49
REMARK   25  A    between atoms: _48  and  _51
REMARK   26  A    between atoms: _51  and  _52
REMARK   27  A    between atoms: _52  and  _53
REMARK   28  A    between atoms: _58  and  _60
REMARK   29  A    between atoms: _60  and  _61
REMARK   30  A    between atoms: _60  and  _63
REMARK   31  A    between atoms: _66  and  _68
REMARK   32  A    between atoms: _68  and  _69
REMARK   33  A    between atoms: _68  and  _71
REMARK   34  A    between atoms: _71  and  _72
REMARK   35  A    between atoms: _75  and  _77
REMARK   36  A    between atoms: _77  and  _78
REMARK   37  A    between atoms: _77  and  _80
REMARK   38  A    between atoms: _80  and  _81
REMARK   39  A    between atoms: _86  and  _87
REMARK   40  A    between atoms: _89  and  _91
REMARK   41  A    between atoms: _91  and  _92
REMARK   42  A    between atoms: _91  and  _94
REMARK   43  A    between atoms: _94  and  _95
REMARK   44  A    between atoms: _100  and  _102
REMARK   45  A    between atoms: _102  and  _103
REMARK   46  A    between atoms: _102  and  _105
REMARK   47  A    between atoms: _105  and  _106
REMARK   48  A    between atoms: _111  and  _112
REMARK   49  A    between atoms: _114  and  _116
REMARK   50  A    between atoms: _116  and  _117
REMARK   51  A    between atoms: _119  and  _121
REMARK   52  A    between atoms: _121  and  _122
REMARK   53  A    between atoms: _121  and  _124
REMARK   54  A    between atoms: _124  and  _125
REMARK   55  A    between atoms: _130  and  _131
REMARK   56  A    between atoms: _133  and  _135
REMARK   57  A    between atoms: _135  and  _136
REMARK   58  A    between atoms: _135  and  _138
REMARK   59  A    between atoms: _138  and  _139
REMARK   60  A    between atoms: _139  and  _140
REMARK   61  A    between atoms: _140  and  _141
REMARK   62  A    between atoms: _150  and  _152
REMARK   63  A    between atoms: _152  and  _153
REMARK   64  A    between atoms: _152  and  _155
REMARK   65  A    between atoms: _155  and  _156
REMARK   66  A    between atoms: _156  and  _157
REMARK   67  A    between atoms: _157  and  _158
REMARK   68  A    between atoms: _158  and  _159
REMARK   69  A    between atoms: _163  and  _165
REMARK   70  A    between atoms: _165  and  _166
REMARK   71  A    between atoms: _169  and  _171
REMARK   72  A    between atoms: _171  and  _172
REMARK   73  A    between atoms: _171  and  _174
REMARK   74  A    between atoms: _177  and  _179
REMARK   75  A    between atoms: _179  and  _180
REMARK   76  A    between atoms: _179  and  _182
REMARK   77  A    between atoms: _182  and  _183
REMARK   78  A    between atoms: _188  and  _190
REMARK   79  A    between atoms: _190  and  _191
REMARK   80  A    between atoms: _190  and  _193
REMARK   81  A    between atoms: _196  and  _198
REMARK   82  A    between atoms: _198  and  _199
REMARK   83  A    between atoms: _198  and  _201
REMARK   84  A    between atoms: _201  and  _202
REMARK   85  A    between atoms: _205  and  _206
REMARK   86  A    between atoms: _211  and  _213
REMARK   87  A    between atoms: _213  and  _214
REMARK   88  A    between atoms: _216  and  _218
REMARK   89  A    between atoms: _218  and  _219
REMARK   90  A    between atoms: _222  and  _224
REMARK   91  A    between atoms: _224  and  _225
REMARK   92  A    between atoms: _224  and  _227
REMARK   93  A    between atoms: _227  and  _228
REMARK   94  A    between atoms: _231  and  _233
REMARK   95  A    between atoms: _233  and  _234
REMARK   96  A    between atoms: _237  and  _239
REMARK   97  A    between atoms: _239  and  _240
REMARK   98  A    between atoms: _239  and  _242
REMARK   99  A    between atoms: _242  and  _243
REMARK  100  A    between atoms: _248  and  _249
REMARK  101  A    between atoms: _251  and  _253
REMARK  102  A    between atoms: _253  and  _254
REMARK  103  A    between atoms: _256  and  _258
REMARK  104  A    between atoms: _258  and  _259
REMARK  105  A    between atoms: _262  and  _264
REMARK  106  A    between atoms: _264  and  _265
REMARK  107  A    between atoms: _264  and  _267
REMARK  108  A    between atoms: _267  and  _268
REMARK  109  A    between atoms: _271  and  _273
REMARK  110  A    between atoms: _273  and  _274
REMARK  111  A    between atoms: _276  and  _278
REMARK  112  A    between atoms: _278  and  _279
REMARK  113  A    between atoms: _281  and  _283
REMARK  114  A    between atoms: _283  and  _284
REMARK  115  A    between atoms: _283  and  _286
REMARK  116  A    between atoms: _286  and  _287
REMARK  117  A    between atoms: _293  and  _295
REMARK  118  A    between atoms: _295  and  _296
REMARK  119  A    between atoms: _295  and  _298
REMARK  120  A    between atoms: _298  and  _299
REMARK                            x       y       z     vdW  Elec       q    Type
REMARK                         _______ _______ _______ _____ _____    ______ ____
ROOT
ATOM      1  CG  TYR A   1      19.061 -10.042   9.624  0.00  0.00    -0.020 A 
ATOM      2  CD2 TYR A   1      19.351  -9.233  10.726  0.00  0.00    -0.001 A 
ATOM      3  CE2 TYR A   1      19.753  -7.899  10.546  0.00  0.00    +0.036 A 
ATOM      4  CZ  TYR A   1      19.887  -7.390   9.252  0.00  0.00    +0.134 A 
ATOM      5  CE1 TYR A   1      19.613  -8.179   8.173  0.00  0.00    +0.036 A 
ATOM      6  CD1 TYR A   1      19.213  -9.490   8.357  0.00  0.00    -0.001 A 
ENDROOT
BRANCH   4   7
ATOM      7  OH  TYR A   1      20.283  -6.090   9.011  0.00  0.00    -0.506 OA
ATOM      8  HH  TYR A   1      20.449  -5.632   9.873  0.00  0.00    +0.292 HD
ENDBRANCH   4   7
BRANCH   1   9
ATOM      9  CB  TYR A   1      18.632 -11.490   9.752  0.00  0.00    +0.051 C 
BRANCH   9  10
ATOM     10  CA  TYR A   1      18.263 -12.013  11.140  0.00  0.00    +0.137 C 
BRANCH  10  11
ATOM     11  N   TYR A   1      18.086 -13.459  11.076  0.00  0.00    -0.239 NA
ATOM     12  H   TYR A   1      17.807 -13.896  10.175  0.00  0.00    +0.142 HD
ENDBRANCH  10  11
BRANCH  10  13
ATOM     13  C   TYR A   1      17.001 -11.360  11.683  0.00  0.00    +0.224 C 
ATOM     14  O   TYR A   1      15.983 -11.291  11.002  0.00  0.00    -0.287 OA
ENDBRANCH  10  13
ENDBRANCH   9  10
ENDBRANCH   1   9
TORSDOF 5
REMARK  Name = ../refined-set-2016/3gtc/3gtc_pocket.pdb
REMARK  120 active torsions:
REMARK  status: ('A' for Active; 'I' for Inactive)
REMARK    1  A    between atoms: _1  and  _3
REMARK    2  A    between atoms: _3  and  _4
REMARK    3  A    between atoms: _3  and  _6
REMARK    4  A    between atoms: _6  and  _7
REMARK    5  A    between atoms: _7  and  _8
REMARK    6  A    between atoms: _11  and  _13
REMARK    7  A    between atoms: _13  and  _14
REMARK    8  A    between atoms: _16  and  _18
REMARK    9  A    between atoms: _18  and  _19
REMARK   10  A    between atoms: _18  and  _21
REMARK   11  A    between atoms: _21  and  _22
REMARK   12  A    between atoms: _24  and  _26
REMARK   13  A    between atoms: _26  and  _27
REMARK   14  A    between atoms: _26  and  _29
REMARK   15  A    between atoms: _29  and  _30
REMARK   16  A    between atoms: _30  and  _31
REMARK   17  A    between atoms: _31  and  _32
REMARK   18  A    between atoms: _32  and  _33
REMARK   19  A    between atoms: _37  and  _39
REMARK   20  A    between atoms: _39  and  _40
REMARK   21  A    between atoms: _39  and  _42
REMARK   22  A    between atoms: _42  and  _43
REMARK   23  A    between atoms: _46  and  _48
REMARK   24  A    between atoms: _48  and  _49
REMARK   25  A    between atoms: _48  and  _51
REMARK   26  A    between atoms: _51  and  _52
REMARK   27  A    between atoms: _52  and  _53
REMARK   28  A    between atoms: _58  and  _60
REMARK   29  A    between atoms: _60  and  _61
REMARK   30  A    between atoms: _60  and  _63
REMARK   31  A    between atoms: _66  and  _68
REMARK   32  A    between atoms: _68  and  _69
REMARK   33  A    between atoms: _68  and  _71
REMARK   34  A    between atoms: _71  and  _72
REMARK   35  A    between atoms: _75  and  _77
REMARK   36  A    between atoms: _77  and  _78
REMARK   37  A    between atoms: _77  and  _80
REMARK   38  A    between atoms: _80  and  _81
REMARK   39  A    between atoms: _86  and  _87
REMARK   40  A    between atoms: _89  and  _91
REMARK   41  A    between atoms: _91  and  _92
REMARK   42  A    between atoms: _91  and  _94
REMARK   43  A    between atoms: _94  and  _95
REMARK   44  A    between atoms: _100  and  _102
REMARK   45  A    between atoms: _102  and  _103
REMARK   46  A    between atoms: _102  and  _105
REMARK   47  A    between atoms: _105  and  _106
REMARK   48  A    between atoms: _111  and  _112
REMARK   49  A    between atoms: _114  and  _116
REMARK   50  A    between atoms: _116  and  _117
REMARK   51  A    between atoms: _119  and  _121
REMARK   52  A    between atoms: _121  and  _122
REMARK   53  A    between atoms: _121  and  _124
REMARK   54  A    between atoms: _124  and  _125
REMARK   55  A    between atoms: _130  and  _131
REMARK   56  A    between atoms: _133  and  _135
REMARK   57  A    between atoms: _135  and  _136
REMARK   58  A    between atoms: _135  and  _138
REMARK   59  A    between atoms: _138  and  _139
REMARK   60  A    between atoms: _139  and  _140
REMARK   61  A    between atoms: _140  and  _141
REMARK   62  A    between atoms: _150  and  _152
REMARK   63  A    between atoms: _152  and  _153
REMARK   64  A    between atoms: _152  and  _155
REMARK   65  A    between atoms: _155  and  _156
REMARK   66  A    between atoms: _156  and  _157
REMARK   67  A    between atoms: _157  and  _158
REMARK   68  A    between atoms: _158  and  _159
REMARK   69  A    between atoms: _163  and  _165
REMARK   70  A    between atoms: _165  and  _166
REMARK   71  A    between atoms: _169  and  _171
REMARK   72  A    between atoms: _171  and  _172
REMARK   73  A    between atoms: _171  and  _174
REMARK   74  A    between atoms: _177  and  _179
REMARK   75  A    between atoms: _179  and  _180
REMARK   76  A    between atoms: _179  and  _182
REMARK   77  A    between atoms: _182  and  _183
REMARK   78  A    between atoms: _188  and  _190
REMARK   79  A    between atoms: _190  and  _191
REMARK   80  A    between atoms: _190  and  _193
REMARK   81  A    between atoms: _196  and  _198
REMARK   82  A    between atoms: _198  and  _199
REMARK   83  A    between atoms: _198  and  _201
REMARK   84  A    between atoms: _201  and  _202
REMARK   85  A    between atoms: _205  and  _206
REMARK   86  A    between atoms: _211  and  _213
REMARK   87  A    between atoms: _213  and  _214
REMARK   88  A    between atoms: _216  and  _218
REMARK   89  A    between atoms: _218  and  _219
REMARK   90  A    between atoms: _222  and  _224
REMARK   91  A    between atoms: _224  and  _225
REMARK   92  A    between atoms: _224  and  _227
REMARK   93  A    between atoms: _227  and  _228
REMARK   94  A    between atoms: _231  and  _233
REMARK   95  A    between atoms: _233  and  _234
REMARK   96  A    between atoms: _237  and  _239
REMARK   97  A    between atoms: _239  and  _240
REMARK   98  A    between atoms: _239  and  _242
REMARK   99  A    between atoms: _242  and  _243
REMARK  100  A    between atoms: _248  and  _249
REMARK  101  A    between atoms: _251  and  _253
REMARK  102  A    between atoms: _253  and  _254
REMARK  103  A    between atoms: _256  and  _258
REMARK  104  A    between atoms: _258  and  _259
REMARK  105  A    between atoms: _262  and  _264
REMARK  106  A    between atoms: _264  and  _265
REMARK  107  A    between atoms: _264  and  _267
REMARK  108  A    between atoms: _267  and  _268
REMARK  109  A    between atoms: _271  and  _273
REMARK  110  A    between atoms: _273  and  _274
REMARK  111  A    between atoms: _276  and  _278
REMARK  112  A    between atoms: _278  and  _279
REMARK  113  A    between atoms: _281  and  _283
REMARK  114  A    between atoms: _283  and  _284
REMARK  115  A    between atoms: _283  and  _286
REMARK  116  A    between atoms: _286  and  _287
REMARK  117  A    between atoms: _293  and  _295
REMARK  118  A    between atoms: _295  and  _296
REMARK  119  A    between atoms: _295  and  _298
REMARK  120  A    between atoms: _298  and  _299
REMARK                            x       y       z     vdW  Elec       q    Type
REMARK                         _______ _______ _______ _____ _____    ______ ____
ROOT
ATOM      1  C   TYR A   2      11.786  -0.394  15.712  0.00  0.00    +0.241 C 
ATOM      2  O   TYR A   2      12.406  -0.039  16.716  0.00  0.00    -0.273 OA
ATOM      3  N   ARG A   3      11.210   0.450  14.859  0.00  0.00    -0.298 N 
ATOM      4  H   ARG A   3      10.710   0.055  14.037  0.00  0.00    +0.150 HD
ENDROOT
BRANCH   1   5
ATOM      5  CA  TYR A   2      11.641  -1.868  15.353  0.00  0.00    +0.153 C 
BRANCH   5   7
ATOM      6  C   GLY A   1      13.253  -3.215  14.119  0.00  0.00    +0.240 C 
ATOM      7  N   TYR A   2      12.947  -2.521  15.211  0.00  0.00    -0.297 N 
ATOM      8  H   TYR A   2      13.645  -2.440  15.977  0.00  0.00    +0.150 HD
ATOM      9  O   GLY A   1      12.468  -3.373  13.187  0.00  0.00    -0.274 OA
BRANCH   6  10
ATOM     10  CA  GLY A   1      14.626  -3.837  14.060  0.00  0.00    +0.169 C 
BRANCH  10  11
ATOM     11  N   GLY A   1      14.573  -4.961  13.148  0.00  0.00    -0.236 NA
ATOM     12  H   GLY A   1      14.838  -4.820  12.152  0.00  0.00    +0.142 HD
ENDBRANCH  10  11
ENDBRANCH   6  10
ENDBRANCH   5   7
BRANCH   5  13
ATOM     13  CB  TYR A   2      10.755  -2.632  16.346  0.00  0.00    +0.055 C 
BRANCH  13  14
ATOM     14  CG  TYR A   2      10.348  -3.973  15.777  0.00  0.00    -0.020 A 
ATOM     15  CD2 TYR A   2      11.091  -5.122  16.047  0.00  0.00    -0.001 A 
ATOM     16  CE2 TYR A   2      10.750  -6.338  15.500  0.00  0.00    +0.036 A 
ATOM     17  CZ  TYR A   2       9.650  -6.426  14.654  0.00  0.00    +0.134 A 
ATOM     18  CE1 TYR A   2       8.901  -5.311  14.359  0.00  0.00    +0.036 A 
ATOM     19  CD1 TYR A   2       9.260  -4.080  14.910  0.00  0.00    -0.001 A 
BRANCH  17  20
ATOM     20  OH  TYR A   2       9.309  -7.630  14.103  0.00  0.00    -0.506 OA
ATOM     21  HH  TYR A   2       8.509  -7.515  13.531  0.00  0.00    +0.292 HD
ENDBRANCH  17  20
ENDBRANCH  13  14
ENDBRANCH   5  13
ENDBRANCH   1   5
BRANCH   3  22
ATOM     22  CA  ARG A   3      11.243   1.898  15.016  0.00  0.00    +0.137 C 
BRANCH  22  23
ATOM     23  C   ARG A   3       9.837   2.453  14.832  0.00  0.00    +0.227 C 
ATOM     24  O   ARG A   3       9.259   2.338  13.753  0.00  0.00    -0.286 OA
ENDBRANCH  22  23
BRANCH  22  25
ATOM     25  CB  ARG A   3      12.177   2.515  13.976  0.00  0.00    +0.031 C 
BRANCH  25  26
ATOM     26  CG  ARG A   3      12.257   4.019  14.044  0.00  0.00    +0.045 C 
BRANCH  26  27
ATOM     27  CD  ARG A   3      13.348   4.536  13.141  0.00  0.00    +0.174 C 
BRANCH  27  28
ATOM     28  NE  ARG A   3      13.533   5.974  13.288  0.00  0.00    -0.265 N 
ATOM     29  HE  ARG A   3      12.822   6.498  13.836  0.00  0.00    +0.259 HD
ATOM     30  CZ  ARG A   3      14.549   6.667  12.770  0.00  0.00    +0.342 C 
ATOM     31  NH2 ARG A   3      14.603   7.982  12.960  0.00  0.00    -0.292 N 
ATOM     32 HH21 ARG A   3      13.859   8.459  13.507  0.00  0.00    +0.255 HD
ATOM     33 HH22 ARG A   3      15.390   8.533  12.561  0.00  0.00    +0.255 HD
ATOM     34  NH1 ARG A   3      15.513   6.062  12.067  0.00  0.00    -0.292 N 
ATOM     35 HH11 ARG A   3      15.479   5.034  11.916  0.00  0.00    +0.255 HD
ATOM     36 HH12 ARG A   3      16.296   6.620  11.672  0.00  0.00    +0.255 HD
ENDBRANCH  27  28
ENDBRANCH  26  27
ENDBRANCH  25  26
ENDBRANCH  22  25
ENDBRANCH   3  22
TORSDOF 13
REMARK  Name = ../refined-set-2016/3gtc/3gtc_pocket.pdb
REMARK  120 active torsions:
REMARK  status: ('A' for Active; 'I' for Inactive)
REMARK    1  A    between atoms: _1  and  _3
REMARK    2  A    between atoms: _3  and  _4
REMARK    3  A    between atoms: _3  and  _6
REMARK    4  A    between atoms: _6  and  _7
REMARK    5  A    between atoms: _7  and  _8
REMARK    6  A    between atoms: _11  and  _13
REMARK    7  A    between atoms: _13  and  _14
REMARK    8  A    between atoms: _16  and  _18
REMARK    9  A    between atoms: _18  and  _19
REMARK   10  A    between atoms: _18  and  _21
REMARK   11  A    between atoms: _21  and  _22
REMARK   12  A    between atoms: _24  and  _26
REMARK   13  A    between atoms: _26  and  _27
REMARK   14  A    between atoms: _26  and  _29
REMARK   15  A    between atoms: _29  and  _30
REMARK   16  A    between atoms: _30  and  _31
REMARK   17  A    between atoms: _31  and  _32
REMARK   18  A    between atoms: _32  and  _33
REMARK   19  A    between atoms: _37  and  _39
REMARK   20  A    between atoms: _39  and  _40
REMARK   21  A    between atoms: _39  and  _42
REMARK   22  A    between atoms: _42  and  _43
REMARK   23  A    between atoms: _46  and  _48
REMARK   24  A    between atoms: _48  and  _49
REMARK   25  A    between atoms: _48  and  _51
REMARK   26  A    between atoms: _51  and  _52
REMARK   27  A    between atoms: _52  and  _53
REMARK   28  A    between atoms: _58  and  _60
REMARK   29  A    between atoms: _60  and  _61
REMARK   30  A    between atoms: _60  and  _63
REMARK   31  A    between atoms: _66  and  _68
REMARK   32  A    between atoms: _68  and  _69
REMARK   33  A    between atoms: _68  and  _71
REMARK   34  A    between atoms: _71  and  _72
REMARK   35  A    between atoms: _75  and  _77
REMARK   36  A    between atoms: _77  and  _78
REMARK   37  A    between atoms: _77  and  _80
REMARK   38  A    between atoms: _80  and  _81
REMARK   39  A    between atoms: _86  and  _87
REMARK   40  A    between atoms: _89  and  _91
REMARK   41  A    between atoms: _91  and  _92
REMARK   42  A    between atoms: _91  and  _94
REMARK   43  A    between atoms: _94  and  _95
REMARK   44  A    between atoms: _100  and  _102
REMARK   45  A    between atoms: _102  and  _103
REMARK   46  A    between atoms: _102  and  _105
REMARK   47  A    between atoms: _105  and  _106
REMARK   48  A    between atoms: _111  and  _112
REMARK   49  A    between atoms: _114  and  _116
REMARK   50  A    between atoms: _116  and  _117
REMARK   51  A    between atoms: _119  and  _121
REMARK   52  A    between atoms: _121  and  _122
REMARK   53  A    between atoms: _121  and  _124
REMARK   54  A    between atoms: _124  and  _125
REMARK   55  A    between atoms: _130  and  _131
REMARK   56  A    between atoms: _133  and  _135
REMARK   57  A    between atoms: _135  and  _136
REMARK   58  A    between atoms: _135  and  _138
REMARK   59  A    between atoms: _138  and  _139
REMARK   60  A    between atoms: _139  and  _140
REMARK   61  A    between atoms: _140  and  _141
REMARK   62  A    between atoms: _150  and  _152
REMARK   63  A    between atoms: _152  and  _153
REMARK   64  A    between atoms: _152  and  _155
REMARK   65  A    between atoms: _155  and  _156
REMARK   66  A    between atoms: _156  and  _157
REMARK   67  A    between atoms: _157  and  _158
REMARK   68  A    between atoms: _158  and  _159
REMARK   69  A    between atoms: _163  and  _165
REMARK   70  A    between atoms: _165  and  _166
REMARK   71  A    between atoms: _169  and  _171
REMARK   72  A    between atoms: _171  and  _172
REMARK   73  A    between atoms: _171  and  _174
REMARK   74  A    between atoms: _177  and  _179
REMARK   75  A    between atoms: _179  and  _180
REMARK   76  A    between atoms: _179  and  _182
REMARK   77  A    between atoms: _182  and  _183
REMARK   78  A    between atoms: _188  and  _190
REMARK   79  A    between atoms: _190  and  _191
REMARK   80  A    between atoms: _190  and  _193
REMARK   81  A    between atoms: _196  and  _198
REMARK   82  A    between atoms: _198  and  _199
REMARK   83  A    between atoms: _198  and  _201
REMARK   84  A    between atoms: _201  and  _202
REMARK   85  A    between atoms: _205  and  _206
REMARK   86  A    between atoms: _211  and  _213
REMARK   87  A    between atoms: _213  and  _214
REMARK   88  A    between atoms: _216  and  _218
REMARK   89  A    between atoms: _218  and  _219
REMARK   90  A    between atoms: _222  and  _224
REMARK   91  A    between atoms: _224  and  _225
REMARK   92  A    between atoms: _224  and  _227
REMARK   93  A    between atoms: _227  and  _228
REMARK   94  A    between atoms: _231  and  _233
REMARK   95  A    between atoms: _233  and  _234
REMARK   96  A    between atoms: _237  and  _239
REMARK   97  A    between atoms: _239  and  _240
REMARK   98  A    between atoms: _239  and  _242
REMARK   99  A    between atoms: _242  and  _243
REMARK  100  A    between atoms: _248  and  _249
REMARK  101  A    between atoms: _251  and  _253
REMARK  102  A    between atoms: _253  and  _254
REMARK  103  A    between atoms: _256  and  _258
REMARK  104  A    between atoms: _258  and  _259
REMARK  105  A    between atoms: _262  and  _264
REMARK  106  A    between atoms: _264  and  _265
REMARK  107  A    between atoms: _264  and  _267
REMARK  108  A    between atoms: _267  and  _268
REMARK  109  A    between atoms: _271  and  _273
REMARK  110  A    between atoms: _273  and  _274
REMARK  111  A    between atoms: _276  and  _278
REMARK  112  A    between atoms: _278  and  _279
REMARK  113  A    between atoms: _281  and  _283
REMARK  114  A    between atoms: _283  and  _284
REMARK  115  A    between atoms: _283  and  _286
REMARK  116  A    between atoms: _286  and  _287
REMARK  117  A    between atoms: _293  and  _295
REMARK  118  A    between atoms: _295  and  _296
REMARK  119  A    between atoms: _295  and  _298
REMARK  120  A    between atoms: _298  and  _299
REMARK                            x       y       z     vdW  Elec       q    Type
REMARK                         _______ _______ _______ _____ _____    ______ ____
ROOT
ATOM      1  CA  HIS A   4      16.776  -3.032   8.761  0.00  0.00    +0.155 C 
ENDROOT
BRANCH   1   4
ATOM      2  C   VAL A   3      14.625  -2.670   9.868  0.00  0.00    +0.241 C 
ATOM      3  O   VAL A   3      14.948  -3.265  10.901  0.00  0.00    -0.273 OA
ATOM      4  N   HIS A   4      15.382  -2.618   8.780  0.00  0.00    -0.297 N 
ATOM      5  H   HIS A   4      14.958  -2.264   7.898  0.00  0.00    +0.150 HD
BRANCH   2   6
ATOM      6  CA  VAL A   3      13.278  -1.956   9.747  0.00  0.00    +0.149 C 
BRANCH   6   8
ATOM      7  C   ALA A   2      11.025  -2.807  10.108  0.00  0.00    +0.241 C 
ATOM      8  N   VAL A   3      12.258  -2.594  10.567  0.00  0.00    -0.297 N 
ATOM      9  H   VAL A   3      12.497  -2.891  11.535  0.00  0.00    +0.150 HD
ATOM     10  O   ALA A   2      10.665  -2.491   8.965  0.00  0.00    -0.273 OA
BRANCH   7  11
ATOM     11  CA  ALA A   2      10.048  -3.444  11.081  0.00  0.00    +0.149 C 
ATOM     12  CB  ALA A   2       9.585  -4.796  10.561  0.00  0.00    +0.031 C 
BRANCH  11  15
ATOM     13  C   LYS A   1       8.981  -1.425  11.979  0.00  0.00    +0.238 C 
ATOM     14  O   LYS A   1       9.988  -1.076  12.588  0.00  0.00    -0.274 OA
ATOM     15  N   ALA A   2       8.909  -2.546  11.268  0.00  0.00    -0.297 N 
ATOM     16  H   ALA A   2       8.002  -2.796  10.825  0.00  0.00    +0.150 HD
BRANCH  13  17
ATOM     17  CA  LYS A   1       7.715  -0.567  12.010  0.00  0.00    +0.145 C 
BRANCH  17  18
ATOM     18  N   LYS A   1       7.478  -0.027  13.350  0.00  0.00    -0.238 NA
ATOM     19  H   LYS A   1       7.966   0.844  13.640  0.00  0.00    +0.142 HD
ENDBRANCH  17  18
BRANCH  17  20
ATOM     20  CB  LYS A   1       7.836   0.558  10.979  0.00  0.00    +0.026 C 
BRANCH  20  21
ATOM     21  CG  LYS A   1       6.581   1.405  10.832  0.00  0.00    -0.000 C 
BRANCH  21  22
ATOM     22  CD  LYS A   1       6.857   2.673  10.030  0.00  0.00    -0.024 C 
BRANCH  22  23
ATOM     23  CE  LYS A   1       5.625   3.576   9.965  0.00  0.00    -0.086 C 
BRANCH  23  24
ATOM     24  NZ  LYS A   1       5.784   4.678   8.966  0.00  0.00    +0.380 N 
ATOM     25  HZ1 LYS A   1       6.602   5.265   9.226  0.00  0.00    -0.089 HD
ATOM     26  HZ2 LYS A   1       4.924   5.263   8.958  0.00  0.00    -0.089 HD
ATOM     27  HZ3 LYS A   1       5.936   4.269   8.022  0.00  0.00    -0.089 HD
ENDBRANCH  23  24
ENDBRANCH  22  23
ENDBRANCH  21  22
ENDBRANCH  20  21
ENDBRANCH  17  20
ENDBRANCH  13  17
ENDBRANCH  11  15
ENDBRANCH   7  11
ENDBRANCH   6   8
BRANCH   6  28
ATOM     28  CB  VAL A   3      13.448  -0.458  10.108  0.00  0.00    +0.027 C 
ATOM     29  CG2 VAL A   3      13.910  -0.280  11.556  0.00  0.00    +0.002 C 
ATOM     30  CG1 VAL A   3      12.145   0.309   9.854  0.00  0.00    +0.002 C 
ENDBRANCH   6  28
ENDBRANCH   2   6
ENDBRANCH   1   4
BRANCH   1  31
ATOM     31  C   HIS A   4      17.613  -1.832   8.360  0.00  0.00    +0.241 C 
ATOM     32  N   VAL A   5      18.905  -1.909   8.645  0.00  0.00    -0.297 N 
ATOM     33  H   VAL A   5      19.283  -2.784   9.060  0.00  0.00    +0.150 HD
ATOM     34  O   HIS A   4      17.095  -0.851   7.818  0.00  0.00    -0.273 OA
BRANCH  32  35
ATOM     35  CA  VAL A   5      19.807  -0.793   8.389  0.00  0.00    +0.149 C 
BRANCH  35  36
ATOM     36  C   VAL A   5      19.915  -0.510   6.889  0.00  0.00    +0.241 C 
ATOM     37  N   SER A   6      19.953   0.776   6.556  0.00  0.00    -0.295 N 
ATOM     38  H   SER A   6      19.890   1.484   7.315  0.00  0.00    +0.150 HD
ATOM     39  O   VAL A   5      19.923  -1.428   6.068  0.00  0.00    -0.273 OA
BRANCH  37  40
ATOM     40  CA  SER A   6      20.078   1.246   5.181  0.00  0.00    +0.178 C 
BRANCH  40  41
ATOM     41  C   SER A   6      21.536   1.279   4.745  0.00  0.00    +0.246 C 
ATOM     42  O   SER A   6      22.407   1.626   5.540  0.00  0.00    -0.273 OA
ATOM     43  N   PRO A   7      21.809   0.947   3.469  0.00  0.00    -0.272 N 
ATOM     44  CA  PRO A   7      23.178   1.137   2.991  0.00  0.00    +0.152 C 
ATOM     45  CB  PRO A   7      23.128   0.615   1.550  0.00  0.00    +0.031 C 
ATOM     46  CG  PRO A   7      21.892  -0.213   1.475  0.00  0.00    +0.024 C 
ATOM     47  CD  PRO A   7      20.935   0.410   2.413  0.00  0.00    +0.094 C 
BRANCH  44  48
ATOM     48  C   PRO A   7      23.578   2.611   3.039  0.00  0.00    +0.241 C 
ATOM     49  N   GLY A   8      24.845   2.872   3.330  0.00  0.00    -0.295 N 
ATOM     50  H   GLY A   8      25.489   2.081   3.531  0.00  0.00    +0.150 HD
ATOM     51  O   PRO A   7      22.743   3.495   2.839  0.00  0.00    -0.273 OA
BRANCH  49  52
ATOM     52  CA  GLY A   8      25.364   4.239   3.377  0.00  0.00    +0.176 C 
BRANCH  52  53
ATOM     53  C   GLY A   8      26.858   4.197   3.194  0.00  0.00    +0.243 C 
ATOM     54  O   GLY A   8      27.483   3.146   3.381  0.00  0.00    -0.273 OA
ATOM     55  N   ALA A   9      27.443   5.322   2.806  0.00  0.00    -0.298 N 
ATOM     56  H   ALA A   9      26.861   6.156   2.589  0.00  0.00    +0.150 HD
BRANCH  55  57
ATOM     57  CA  ALA A   9      28.900   5.403   2.679  0.00  0.00    +0.137 C 
ATOM     58  CB  ALA A   9      29.333   6.765   2.152  0.00  0.00    +0.030 C 
BRANCH  57  59
ATOM     59  C   ALA A   9      29.543   5.131   4.034  0.00  0.00    +0.227 C 
ATOM     60  O   ALA A   9      29.097   5.649   5.062  0.00  0.00    -0.286 OA
ENDBRANCH  57  59
ENDBRANCH  55  57
ENDBRANCH  52  53
ENDBRANCH  49  52
ENDBRANCH  44  48
ENDBRANCH  40  41
BRANCH  40  61
ATOM     61  CB  SER A   6      19.502   2.659   5.054  0.00  0.00    +0.166 C 
BRANCH  61  62
ATOM     62  OG  SER A   6      18.083   2.622   5.006  0.00  0.00    -0.380 OA
ATOM     63  H   SER A   6      17.737   2.209   5.836  0.00  0.00    +0.211 HD
ENDBRANCH  61  62
ENDBRANCH  40  61
ENDBRANCH  37  40
ENDBRANCH  35  36
BRANCH  35  64
ATOM     64  CB  VAL A   5      21.201  -1.032   9.019  0.00  0.00    +0.027 C 
ATOM     65  CG2 VAL A   5      22.075   0.207   8.874  0.00  0.00    +0.002 C 
ATOM     66  CG1 VAL A   5      21.863  -2.263   8.416  0.00  0.00    +0.002 C 
ENDBRANCH  35  64
ENDBRANCH  32  35
ENDBRANCH   1  31
BRANCH   1  67
ATOM     67  CB  HIS A   4      16.995  -4.199   7.794  0.00  0.00    +0.076 C 
BRANCH  67  68
ATOM     68  CG  HIS A   4      16.676  -5.538   8.383  0.00  0.00    +0.082 A 
ATOM     69  CD2 HIS A   4      16.747  -5.987   9.659  0.00  0.00    +0.115 A 
ATOM     70  NE2 HIS A   4      16.347  -7.301   9.653  0.00  0.00    -0.221 NA
ATOM     71  CE1 HIS A   4      16.044  -7.648   8.415  0.00  0.00    +0.199 A 
ATOM     72  ND1 HIS A   4      16.229  -6.600   7.629  0.00  0.00    -0.227 NA
ENDBRANCH  67  68
ENDBRANCH   1  67
TORSDOF 28
REMARK  Name = ../refined-set-2016/3gtc/3gtc_pocket.pdb
REMARK  120 active torsions:
REMARK  status: ('A' for Active; 'I' for Inactive)
REMARK    1  A    between atoms: _1  and  _3
REMARK    2  A    between atoms: _3  and  _4
REMARK    3  A    between atoms: _3  and  _6
REMARK    4  A    between atoms: _6  and  _7
REMARK    5  A    between atoms: _7  and  _8
REMARK    6  A    between atoms: _11  and  _13
REMARK    7  A    between atoms: _13  and  _14
REMARK    8  A    between atoms: _16  and  _18
REMARK    9  A    between atoms: _18  and  _19
REMARK   10  A    between atoms: _18  and  _21
REMARK   11  A    between atoms: _21  and  _22
REMARK   12  A    between atoms: _24  and  _26
REMARK   13  A    between atoms: _26  and  _27
REMARK   14  A    between atoms: _26  and  _29
REMARK   15  A    between atoms: _29  and  _30
REMARK   16  A    between atoms: _30  and  _31
REMARK   17  A    between atoms: _31  and  _32
REMARK   18  A    between atoms: _32  and  _33
REMARK   19  A    between atoms: _37  and  _39
REMARK   20  A    between atoms: _39  and  _40
REMARK   21  A    between atoms: _39  and  _42
REMARK   22  A    between atoms: _42  and  _43
REMARK   23  A    between atoms: _46  and  _48
REMARK   24  A    between atoms: _48  and  _49
REMARK   25  A    between atoms: _48  and  _51
REMARK   26  A    between atoms: _51  and  _52
REMARK   27  A    between atoms: _52  and  _53
REMARK   28  A    between atoms: _58  and  _60
REMARK   29  A    between atoms: _60  and  _61
REMARK   30  A    between atoms: _60  and  _63
REMARK   31  A    between atoms: _66  and  _68
REMARK   32  A    between atoms: _68  and  _69
REMARK   33  A    between atoms: _68  and  _71
REMARK   34  A    between atoms: _71  and  _72
REMARK   35  A    between atoms: _75  and  _77
REMARK   36  A    between atoms: _77  and  _78
REMARK   37  A    between atoms: _77  and  _80
REMARK   38  A    between atoms: _80  and  _81
REMARK   39  A    between atoms: _86  and  _87
REMARK   40  A    between atoms: _89  and  _91
REMARK   41  A    between atoms: _91  and  _92
REMARK   42  A    between atoms: _91  and  _94
REMARK   43  A    between atoms: _94  and  _95
REMARK   44  A    between atoms: _100  and  _102
REMARK   45  A    between atoms: _102  and  _103
REMARK   46  A    between atoms: _102  and  _105
REMARK   47  A    between atoms: _105  and  _106
REMARK   48  A    between atoms: _111  and  _112
REMARK   49  A    between atoms: _114  and  _116
REMARK   50  A    between atoms: _116  and  _117
REMARK   51  A    between atoms: _119  and  _121
REMARK   52  A    between atoms: _121  and  _122
REMARK   53  A    between atoms: _121  and  _124
REMARK   54  A    between atoms: _124  and  _125
REMARK   55  A    between atoms: _130  and  _131
REMARK   56  A    between atoms: _133  and  _135
REMARK   57  A    between atoms: _135  and  _136
REMARK   58  A    between atoms: _135  and  _138
REMARK   59  A    between atoms: _138  and  _139
REMARK   60  A    between atoms: _139  and  _140
REMARK   61  A    between atoms: _140  and  _141
REMARK   62  A    between atoms: _150  and  _152
REMARK   63  A    between atoms: _152  and  _153
REMARK   64  A    between atoms: _152  and  _155
REMARK   65  A    between atoms: _155  and  _156
REMARK   66  A    between atoms: _156  and  _157
REMARK   67  A    between atoms: _157  and  _158
REMARK   68  A    between atoms: _158  and  _159
REMARK   69  A    between atoms: _163  and  _165
REMARK   70  A    between atoms: _165  and  _166
REMARK   71  A    between atoms: _169  and  _171
REMARK   72  A    between atoms: _171  and  _172
REMARK   73  A    between atoms: _171  and  _174
REMARK   74  A    between atoms: _177  and  _179
REMARK   75  A    between atoms: _179  and  _180
REMARK   76  A    between atoms: _179  and  _182
REMARK   77  A    between atoms: _182  and  _183
REMARK   78  A    between atoms: _188  and  _190
REMARK   79  A    between atoms: _190  and  _191
REMARK   80  A    between atoms: _190  and  _193
REMARK   81  A    between atoms: _196  and  _198
REMARK   82  A    between atoms: _198  and  _199
REMARK   83  A    between atoms: _198  and  _201
REMARK   84  A    between atoms: _201  and  _202
REMARK   85  A    between atoms: _205  and  _206
REMARK   86  A    between atoms: _211  and  _213
REMARK   87  A    between atoms: _213  and  _214
REMARK   88  A    between atoms: _216  and  _218
REMARK   89  A    between atoms: _218  and  _219
REMARK   90  A    between atoms: _222  and  _224
REMARK   91  A    between atoms: _224  and  _225
REMARK   92  A    between atoms: _224  and  _227
REMARK   93  A    between atoms: _227  and  _228
REMARK   94  A    between atoms: _231  and  _233
REMARK   95  A    between atoms: _233  and  _234
REMARK   96  A    between atoms: _237  and  _239
REMARK   97  A    between atoms: _239  and  _240
REMARK   98  A    between atoms: _239  and  _242
REMARK   99  A    between atoms: _242  and  _243
REMARK  100  A    between atoms: _248  and  _249
REMARK  101  A    between atoms: _251  and  _253
REMARK  102  A    between atoms: _253  and  _254
REMARK  103  A    between atoms: _256  and  _258
REMARK  104  A    between atoms: _258  and  _259
REMARK  105  A    between atoms: _262  and  _264
REMARK  106  A    between atoms: _264  and  _265
REMARK  107  A    between atoms: _264  and  _267
REMARK  108  A    between atoms: _267  and  _268
REMARK  109  A    between atoms: _271  and  _273
REMARK  110  A    between atoms: _273  and  _274
REMARK  111  A    between atoms: _276  and  _278
REMARK  112  A    between atoms: _278  and  _279
REMARK  113  A    between atoms: _281  and  _283
REMARK  114  A    between atoms: _283  and  _284
REMARK  115  A    between atoms: _283  and  _286
REMARK  116  A    between atoms: _286  and  _287
REMARK  117  A    between atoms: _293  and  _295
REMARK  118  A    between atoms: _295  and  _296
REMARK  119  A    between atoms: _295  and  _298
REMARK  120  A    between atoms: _298  and  _299
REMARK                            x       y       z     vdW  Elec       q    Type
REMARK                         _______ _______ _______ _____ _____    ______ ____
ROOT
ATOM      1  CA  ASP A   1      28.528   1.860   6.773  0.00  0.00    +0.144 C 
ENDROOT
BRANCH   1   2
ATOM      2  N   ASP A   1      29.407   2.591   5.855  0.00  0.00    -0.239 NA
ATOM      3  H   ASP A   1      29.172   2.612   4.842  0.00  0.00    +0.142 HD
ENDBRANCH   1   2
BRANCH   1   4
ATOM      4  C   ASP A   1      29.217   0.654   7.432  0.00  0.00    +0.225 C 
ATOM      5  O   ASP A   1      29.128   0.474   8.649  0.00  0.00    -0.287 OA
ENDBRANCH   1   4
BRANCH   1   6
ATOM      6  CB  ASP A   1      27.180   1.466   6.119  0.00  0.00    +0.139 C 
BRANCH   6   7
ATOM      7  CG  ASP A   1      27.318   0.644   4.839  0.00  0.00    +0.367 C 
ATOM      8  OD2 ASP A   1      28.437   0.287   4.405  0.00  0.00    -0.246 OA
ATOM      9  OD1 ASP A   1      26.252   0.357   4.254  0.00  0.00    -0.246 OA
ENDBRANCH   6   7
ENDBRANCH   1   6
TORSDOF 4
REMARK  Name = ../refined-set-2016/3gtc/3gtc_pocket.pdb
REMARK  120 active torsions:
REMARK  status: ('A' for Active; 'I' for Inactive)
REMARK    1  A    between atoms: _1  and  _3
REMARK    2  A    between atoms: _3  and  _4
REMARK    3  A    between atoms: _3  and  _6
REMARK    4  A    between atoms: _6  and  _7
REMARK    5  A    between atoms: _7  and  _8
REMARK    6  A    between atoms: _11  and  _13
REMARK    7  A    between atoms: _13  and  _14
REMARK    8  A    between atoms: _16  and  _18
REMARK    9  A    between atoms: _18  and  _19
REMARK   10  A    between atoms: _18  and  _21
REMARK   11  A    between atoms: _21  and  _22
REMARK   12  A    between atoms: _24  and  _26
REMARK   13  A    between atoms: _26  and  _27
REMARK   14  A    between atoms: _26  and  _29
REMARK   15  A    between atoms: _29  and  _30
REMARK   16  A    between atoms: _30  and  _31
REMARK   17  A    between atoms: _31  and  _32
REMARK   18  A    between atoms: _32  and  _33
REMARK   19  A    between atoms: _37  and  _39
REMARK   20  A    between atoms: _39  and  _40
REMARK   21  A    between atoms: _39  and  _42
REMARK   22  A    between atoms: _42  and  _43
REMARK   23  A    between atoms: _46  and  _48
REMARK   24  A    between atoms: _48  and  _49
REMARK   25  A    between atoms: _48  and  _51
REMARK   26  A    between atoms: _51  and  _52
REMARK   27  A    between atoms: _52  and  _53
REMARK   28  A    between atoms: _58  and  _60
REMARK   29  A    between atoms: _60  and  _61
REMARK   30  A    between atoms: _60  and  _63
REMARK   31  A    between atoms: _66  and  _68
REMARK   32  A    between atoms: _68  and  _69
REMARK   33  A    between atoms: _68  and  _71
REMARK   34  A    between atoms: _71  and  _72
REMARK   35  A    between atoms: _75  and  _77
REMARK   36  A    between atoms: _77  and  _78
REMARK   37  A    between atoms: _77  and  _80
REMARK   38  A    between atoms: _80  and  _81
REMARK   39  A    between atoms: _86  and  _87
REMARK   40  A    between atoms: _89  and  _91
REMARK   41  A    between atoms: _91  and  _92
REMARK   42  A    between atoms: _91  and  _94
REMARK   43  A    between atoms: _94  and  _95
REMARK   44  A    between atoms: _100  and  _102
REMARK   45  A    between atoms: _102  and  _103
REMARK   46  A    between atoms: _102  and  _105
REMARK   47  A    between atoms: _105  and  _106
REMARK   48  A    between atoms: _111  and  _112
REMARK   49  A    between atoms: _114  and  _116
REMARK   50  A    between atoms: _116  and  _117
REMARK   51  A    between atoms: _119  and  _121
REMARK   52  A    between atoms: _121  and  _122
REMARK   53  A    between atoms: _121  and  _124
REMARK   54  A    between atoms: _124  and  _125
REMARK   55  A    between atoms: _130  and  _131
REMARK   56  A    between atoms: _133  and  _135
REMARK   57  A    between atoms: _135  and  _136
REMARK   58  A    between atoms: _135  and  _138
REMARK   59  A    between atoms: _138  and  _139
REMARK   60  A    between atoms: _139  and  _140
REMARK   61  A    between atoms: _140  and  _141
REMARK   62  A    between atoms: _150  and  _152
REMARK   63  A    between atoms: _152  and  _153
REMARK   64  A    between atoms: _152  and  _155
REMARK   65  A    between atoms: _155  and  _156
REMARK   66  A    between atoms: _156  and  _157
REMARK   67  A    between atoms: _157  and  _158
REMARK   68  A    between atoms: _158  and  _159
REMARK   69  A    between atoms: _163  and  _165
REMARK   70  A    between atoms: _165  and  _166
REMARK   71  A    between atoms: _169  and  _171
REMARK   72  A    between atoms: _171  and  _172
REMARK   73  A    between atoms: _171  and  _174
REMARK   74  A    between atoms: _177  and  _179
REMARK   75  A    between atoms: _179  and  _180
REMARK   76  A    between atoms: _179  and  _182
REMARK   77  A    between atoms: _182  and  _183
REMARK   78  A    between atoms: _188  and  _190
REMARK   79  A    between atoms: _190  and  _191
REMARK   80  A    between atoms: _190  and  _193
REMARK   81  A    between atoms: _196  and  _198
REMARK   82  A    between atoms: _198  and  _199
REMARK   83  A    between atoms: _198  and  _201
REMARK   84  A    between atoms: _201  and  _202
REMARK   85  A    between atoms: _205  and  _206
REMARK   86  A    between atoms: _211  and  _213
REMARK   87  A    between atoms: _213  and  _214
REMARK   88  A    between atoms: _216  and  _218
REMARK   89  A    between atoms: _218  and  _219
REMARK   90  A    between atoms: _222  and  _224
REMARK   91  A    between atoms: _224  and  _225
REMARK   92  A    between atoms: _224  and  _227
REMARK   93  A    between atoms: _227  and  _228
REMARK   94  A    between atoms: _231  and  _233
REMARK   95  A    between atoms: _233  and  _234
REMARK   96  A    between atoms: _237  and  _239
REMARK   97  A    between atoms: _239  and  _240
REMARK   98  A    between atoms: _239  and  _242
REMARK   99  A    between atoms: _242  and  _243
REMARK  100  A    between atoms: _248  and  _249
REMARK  101  A    between atoms: _251  and  _253
REMARK  102  A    between atoms: _253  and  _254
REMARK  103  A    between atoms: _256  and  _258
REMARK  104  A    between atoms: _258  and  _259
REMARK  105  A    between atoms: _262  and  _264
REMARK  106  A    between atoms: _264  and  _265
REMARK  107  A    between atoms: _264  and  _267
REMARK  108  A    between atoms: _267  and  _268
REMARK  109  A    between atoms: _271  and  _273
REMARK  110  A    between atoms: _273  and  _274
REMARK  111  A    between atoms: _276  and  _278
REMARK  112  A    between atoms: _278  and  _279
REMARK  113  A    between atoms: _281  and  _283
REMARK  114  A    between atoms: _283  and  _284
REMARK  115  A    between atoms: _283  and  _286
REMARK  116  A    between atoms: _286  and  _287
REMARK  117  A    between atoms: _293  and  _295
REMARK  118  A    between atoms: _295  and  _296
REMARK  119  A    between atoms: _295  and  _298
REMARK  120  A    between atoms: _298  and  _299
REMARK                            x       y       z     vdW  Elec       q    Type
REMARK                         _______ _______ _______ _____ _____    ______ ____
ROOT
ATOM      1  CA  TYR A   2      28.008   0.714  11.973  0.00  0.00    +0.153 C 
ENDROOT
BRANCH   1   4
ATOM      2  C   ALA A   1      30.051   2.050  12.044  0.00  0.00    +0.238 C 
ATOM      3  O   ALA A   1      29.908   2.246  13.248  0.00  0.00    -0.274 OA
ATOM      4  N   TYR A   2      29.219   1.280  11.345  0.00  0.00    -0.297 N 
ATOM      5  H   TYR A   2      29.424   1.075  10.346  0.00  0.00    +0.150 HD
BRANCH   2   6
ATOM      6  CA  ALA A   1      31.221   2.715  11.301  0.00  0.00    +0.145 C 
ATOM      7  CB  ALA A   1      30.825   4.126  10.830  0.00  0.00    +0.028 C 
BRANCH   6   8
ATOM      8  N   ALA A   1      31.738   1.938  10.178  0.00  0.00    -0.238 NA
ATOM      9  H   ALA A   1      31.198   1.918   9.290  0.00  0.00    +0.142 HD
ENDBRANCH   6   8
ENDBRANCH   2   6
ENDBRANCH   1   4
BRANCH   1  10
ATOM     10  C   TYR A   2      27.420  -0.537  11.302  0.00  0.00    +0.241 C 
ATOM     11  O   TYR A   2      26.240  -0.851  11.493  0.00  0.00    -0.273 OA
ATOM     12  N   GLY A   3      28.233  -1.284  10.564  0.00  0.00    -0.296 N 
ATOM     13  H   GLY A   3      29.260  -1.126  10.606  0.00  0.00    +0.150 HD
BRANCH  12  14
ATOM     14  CA  GLY A   3      27.696  -2.325   9.694  0.00  0.00    +0.163 C 
BRANCH  14  15
ATOM     15  C   GLY A   3      27.750  -3.775  10.123  0.00  0.00    +0.229 C 
ATOM     16  O   GLY A   3      27.409  -4.654   9.330  0.00  0.00    -0.286 OA
ENDBRANCH  14  15
ENDBRANCH  12  14
ENDBRANCH   1  10
BRANCH   1  17
ATOM     17  CB  TYR A   2      26.927   1.808  12.085  0.00  0.00    +0.055 C 
BRANCH  17  18
ATOM     18  CG  TYR A   2      26.548   2.470  10.766  0.00  0.00    -0.020 A 
ATOM     19  CD2 TYR A   2      27.132   3.674  10.376  0.00  0.00    -0.001 A 
ATOM     20  CE2 TYR A   2      26.792   4.282   9.183  0.00  0.00    +0.036 A 
ATOM     21  CZ  TYR A   2      25.840   3.695   8.357  0.00  0.00    +0.134 A 
ATOM     22  CE1 TYR A   2      25.241   2.507   8.726  0.00  0.00    +0.036 A 
ATOM     23  CD1 TYR A   2      25.596   1.903   9.926  0.00  0.00    -0.001 A 
BRANCH  21  24
ATOM     24  OH  TYR A   2      25.490   4.298   7.176  0.00  0.00    -0.506 OA
ATOM     25  HH  TYR A   2      24.805   3.750   6.717  0.00  0.00    +0.292 HD
ENDBRANCH  21  24
ENDBRANCH  17  18
ENDBRANCH   1  17
TORSDOF 9
REMARK  Name = ../refined-set-2016/3gtc/3gtc_pocket.pdb
REMARK  120 active torsions:
REMARK  status: ('A' for Active; 'I' for Inactive)
REMARK    1  A    between atoms: _1  and  _3
REMARK    2  A    between atoms: _3  and  _4
REMARK    3  A    between atoms: _3  and  _6
REMARK    4  A    between atoms: _6  and  _7
REMARK    5  A    between atoms: _7  and  _8
REMARK    6  A    between atoms: _11  and  _13
REMARK    7  A    between atoms: _13  and  _14
REMARK    8  A    between atoms: _16  and  _18
REMARK    9  A    between atoms: _18  and  _19
REMARK   10  A    between atoms: _18  and  _21
REMARK   11  A    between atoms: _21  and  _22
REMARK   12  A    between atoms: _24  and  _26
REMARK   13  A    between atoms: _26  and  _27
REMARK   14  A    between atoms: _26  and  _29
REMARK   15  A    between atoms: _29  and  _30
REMARK   16  A    between atoms: _30  and  _31
REMARK   17  A    between atoms: _31  and  _32
REMARK   18  A    between atoms: _32  and  _33
REMARK   19  A    between atoms: _37  and  _39
REMARK   20  A    between atoms: _39  and  _40
REMARK   21  A    between atoms: _39  and  _42
REMARK   22  A    between atoms: _42  and  _43
REMARK   23  A    between atoms: _46  and  _48
REMARK   24  A    between atoms: _48  and  _49
REMARK   25  A    between atoms: _48  and  _51
REMARK   26  A    between atoms: _51  and  _52
REMARK   27  A    between atoms: _52  and  _53
REMARK   28  A    between atoms: _58  and  _60
REMARK   29  A    between atoms: _60  and  _61
REMARK   30  A    between atoms: _60  and  _63
REMARK   31  A    between atoms: _66  and  _68
REMARK   32  A    between atoms: _68  and  _69
REMARK   33  A    between atoms: _68  and  _71
REMARK   34  A    between atoms: _71  and  _72
REMARK   35  A    between atoms: _75  and  _77
REMARK   36  A    between atoms: _77  and  _78
REMARK   37  A    between atoms: _77  and  _80
REMARK   38  A    between atoms: _80  and  _81
REMARK   39  A    between atoms: _86  and  _87
REMARK   40  A    between atoms: _89  and  _91
REMARK   41  A    between atoms: _91  and  _92
REMARK   42  A    between atoms: _91  and  _94
REMARK   43  A    between atoms: _94  and  _95
REMARK   44  A    between atoms: _100  and  _102
REMARK   45  A    between atoms: _102  and  _103
REMARK   46  A    between atoms: _102  and  _105
REMARK   47  A    between atoms: _105  and  _106
REMARK   48  A    between atoms: _111  and  _112
REMARK   49  A    between atoms: _114  and  _116
REMARK   50  A    between atoms: _116  and  _117
REMARK   51  A    between atoms: _119  and  _121
REMARK   52  A    between atoms: _121  and  _122
REMARK   53  A    between atoms: _121  and  _124
REMARK   54  A    between atoms: _124  and  _125
REMARK   55  A    between atoms: _130  and  _131
REMARK   56  A    between atoms: _133  and  _135
REMARK   57  A    between atoms: _135  and  _136
REMARK   58  A    between atoms: _135  and  _138
REMARK   59  A    between atoms: _138  and  _139
REMARK   60  A    between atoms: _139  and  _140
REMARK   61  A    between atoms: _140  and  _141
REMARK   62  A    between atoms: _150  and  _152
REMARK   63  A    between atoms: _152  and  _153
REMARK   64  A    between atoms: _152  and  _155
REMARK   65  A    between atoms: _155  and  _156
REMARK   66  A    between atoms: _156  and  _157
REMARK   67  A    between atoms: _157  and  _158
REMARK   68  A    between atoms: _158  and  _159
REMARK   69  A    between atoms: _163  and  _165
REMARK   70  A    between atoms: _165  and  _166
REMARK   71  A    between atoms: _169  and  _171
REMARK   72  A    between atoms: _171  and  _172
REMARK   73  A    between atoms: _171  and  _174
REMARK   74  A    between atoms: _177  and  _179
REMARK   75  A    between atoms: _179  and  _180
REMARK   76  A    between atoms: _179  and  _182
REMARK   77  A    between atoms: _182  and  _183
REMARK   78  A    between atoms: _188  and  _190
REMARK   79  A    between atoms: _190  and  _191
REMARK   80  A    between atoms: _190  and  _193
REMARK   81  A    between atoms: _196  and  _198
REMARK   82  A    between atoms: _198  and  _199
REMARK   83  A    between atoms: _198  and  _201
REMARK   84  A    between atoms: _201  and  _202
REMARK   85  A    between atoms: _205  and  _206
REMARK   86  A    between atoms: _211  and  _213
REMARK   87  A    between atoms: _213  and  _214
REMARK   88  A    between atoms: _216  and  _218
REMARK   89  A    between atoms: _218  and  _219
REMARK   90  A    between atoms: _222  and  _224
REMARK   91  A    between atoms: _224  and  _225
REMARK   92  A    between atoms: _224  and  _227
REMARK   93  A    between atoms: _227  and  _228
REMARK   94  A    between atoms: _231  and  _233
REMARK   95  A    between atoms: _233  and  _234
REMARK   96  A    between atoms: _237  and  _239
REMARK   97  A    between atoms: _239  and  _240
REMARK   98  A    between atoms: _239  and  _242
REMARK   99  A    between atoms: _242  and  _243
REMARK  100  A    between atoms: _248  and  _249
REMARK  101  A    between atoms: _251  and  _253
REMARK  102  A    between atoms: _253  and  _254
REMARK  103  A    between atoms: _256  and  _258
REMARK  104  A    between atoms: _258  and  _259
REMARK  105  A    between atoms: _262  and  _264
REMARK  106  A    between atoms: _264  and  _265
REMARK  107  A    between atoms: _264  and  _267
REMARK  108  A    between atoms: _267  and  _268
REMARK  109  A    between atoms: _271  and  _273
REMARK  110  A    between atoms: _273  and  _274
REMARK  111  A    between atoms: _276  and  _278
REMARK  112  A    between atoms: _278  and  _279
REMARK  113  A    between atoms: _281  and  _283
REMARK  114  A    between atoms: _283  and  _284
REMARK  115  A    between atoms: _283  and  _286
REMARK  116  A    between atoms: _286  and  _287
REMARK  117  A    between atoms: _293  and  _295
REMARK  118  A    between atoms: _295  and  _296
REMARK  119  A    between atoms: _295  and  _298
REMARK  120  A    between atoms: _298  and  _299
REMARK                            x       y       z     vdW  Elec       q    Type
REMARK                         _______ _______ _______ _____ _____    ______ ____
ROOT
ATOM      1  C   GLY A   3      16.429   2.007  14.284  0.00  0.00    +0.243 C 
ATOM      2  O   GLY A   3      15.569   2.463  15.036  0.00  0.00    -0.273 OA
ATOM      3  N   GLY A   4      16.646   0.703  14.135  0.00  0.00    -0.295 N 
ATOM      4  H   GLY A   4      17.442   0.391  13.543  0.00  0.00    +0.150 HD
ENDROOT
BRANCH   1   5
ATOM      5  CA  GLY A   3      17.329   2.937  13.480  0.00  0.00    +0.176 C 
BRANCH   5   8
ATOM      6  C   THR A   2      19.396   2.198  14.507  0.00  0.00    +0.243 C 
ATOM      7  O   THR A   2      18.949   2.412  15.637  0.00  0.00    -0.273 OA
ATOM      8  N   GLY A   3      18.699   2.459  13.411  0.00  0.00    -0.295 N 
ATOM      9  H   GLY A   3      19.142   2.319  12.481  0.00  0.00    +0.150 HD
BRANCH   6  10
ATOM     10  CA  THR A   2      20.812   1.656  14.322  0.00  0.00    +0.176 C 
BRANCH  10  12
ATOM     11  C   ALA A   1      22.402   1.869  16.161  0.00  0.00    +0.238 C 
ATOM     12  N   THR A   2      21.299   1.327  15.660  0.00  0.00    -0.295 N 
ATOM     13  H   THR A   2      20.765   0.647  16.238  0.00  0.00    +0.150 HD
ATOM     14  O   ALA A   1      23.310   2.333  15.457  0.00  0.00    -0.274 OA
BRANCH  11  15
ATOM     15  CA  ALA A   1      22.509   1.837  17.682  0.00  0.00    +0.145 C 
ATOM     16  CB  ALA A   1      21.735   3.022  18.293  0.00  0.00    +0.028 C 
BRANCH  15  17
ATOM     17  N   ALA A   1      23.888   1.846  18.132  0.00  0.00    -0.238 NA
ATOM     18  H   ALA A   1      24.588   2.413  17.612  0.00  0.00    +0.142 HD
ENDBRANCH  15  17
ENDBRANCH  11  15
ENDBRANCH  10  12
BRANCH  10  19
ATOM     19  CB  THR A   2      20.835   0.461  13.350  0.00  0.00    +0.137 C 
ATOM     20  CG2 THR A   2      22.233  -0.123  13.229  0.00  0.00    +0.034 C 
BRANCH  19  21
ATOM     21  OG1 THR A   2      19.912  -0.546  13.783  0.00  0.00    -0.382 OA
ATOM     22  HG1 THR A   2      19.936  -1.308  13.151  0.00  0.00    +0.210 HD
ENDBRANCH  19  21
ENDBRANCH  10  19
ENDBRANCH   6  10
ENDBRANCH   5   8
ENDBRANCH   1   5
BRANCH   3  23
ATOM     23  CA  GLY A   4      15.806  -0.303  14.773  0.00  0.00    +0.176 C 
BRANCH  23  24
ATOM     24  C   GLY A   4      16.435  -1.157  15.860  0.00  0.00    +0.243 C 
ATOM     25  O   GLY A   4      15.773  -2.057  16.357  0.00  0.00    -0.273 OA
ATOM     26  N   PHE A   5      17.698  -0.896  16.227  0.00  0.00    -0.298 N 
ATOM     27  H   PHE A   5      18.180  -0.078  15.803  0.00  0.00    +0.150 HD
BRANCH  26  28
ATOM     28  CA  PHE A   5      18.435  -1.722  17.209  0.00  0.00    +0.141 C 
BRANCH  28  29
ATOM     29  C   PHE A   5      19.215  -0.876  18.225  0.00  0.00    +0.227 C 
ATOM     30  O   PHE A   5      19.644   0.235  17.921  0.00  0.00    -0.286 OA
ENDBRANCH  28  29
BRANCH  28  31
ATOM     31  CB  PHE A   5      19.442  -2.639  16.507  0.00  0.00    +0.054 C 
BRANCH  31  32
ATOM     32  CG  PHE A   5      18.822  -3.765  15.705  0.00  0.00    -0.020 A 
ATOM     33  CD2 PHE A   5      18.800  -5.061  16.205  0.00  0.00    -0.004 A 
ATOM     34  CE2 PHE A   5      18.261  -6.126  15.448  0.00  0.00    -0.000 A 
ATOM     35  CZ  PHE A   5      17.754  -5.877  14.187  0.00  0.00    -0.000 A 
ATOM     36  CE1 PHE A   5      17.781  -4.582  13.672  0.00  0.00    -0.000 A 
ATOM     37  CD1 PHE A   5      18.317  -3.535  14.429  0.00  0.00    -0.004 A 
ENDBRANCH  31  32
ENDBRANCH  28  31
ENDBRANCH  26  28
ENDBRANCH  23  24
ENDBRANCH   3  23
TORSDOF 14
REMARK  Name = ../refined-set-2016/3gtc/3gtc_pocket.pdb
REMARK  120 active torsions:
REMARK  status: ('A' for Active; 'I' for Inactive)
REMARK    1  A    between atoms: _1  and  _3
REMARK    2  A    between atoms: _3  and  _4
REMARK    3  A    between atoms: _3  and  _6
REMARK    4  A    between atoms: _6  and  _7
REMARK    5  A    between atoms: _7  and  _8
REMARK    6  A    between atoms: _11  and  _13
REMARK    7  A    between atoms: _13  and  _14
REMARK    8  A    between atoms: _16  and  _18
REMARK    9  A    between atoms: _18  and  _19
REMARK   10  A    between atoms: _18  and  _21
REMARK   11  A    between atoms: _21  and  _22
REMARK   12  A    between atoms: _24  and  _26
REMARK   13  A    between atoms: _26  and  _27
REMARK   14  A    between atoms: _26  and  _29
REMARK   15  A    between atoms: _29  and  _30
REMARK   16  A    between atoms: _30  and  _31
REMARK   17  A    between atoms: _31  and  _32
REMARK   18  A    between atoms: _32  and  _33
REMARK   19  A    between atoms: _37  and  _39
REMARK   20  A    between atoms: _39  and  _40
REMARK   21  A    between atoms: _39  and  _42
REMARK   22  A    between atoms: _42  and  _43
REMARK   23  A    between atoms: _46  and  _48
REMARK   24  A    between atoms: _48  and  _49
REMARK   25  A    between atoms: _48  and  _51
REMARK   26  A    between atoms: _51  and  _52
REMARK   27  A    between atoms: _52  and  _53
REMARK   28  A    between atoms: _58  and  _60
REMARK   29  A    between atoms: _60  and  _61
REMARK   30  A    between atoms: _60  and  _63
REMARK   31  A    between atoms: _66  and  _68
REMARK   32  A    between atoms: _68  and  _69
REMARK   33  A    between atoms: _68  and  _71
REMARK   34  A    between atoms: _71  and  _72
REMARK   35  A    between atoms: _75  and  _77
REMARK   36  A    between atoms: _77  and  _78
REMARK   37  A    between atoms: _77  and  _80
REMARK   38  A    between atoms: _80  and  _81
REMARK   39  A    between atoms: _86  and  _87
REMARK   40  A    between atoms: _89  and  _91
REMARK   41  A    between atoms: _91  and  _92
REMARK   42  A    between atoms: _91  and  _94
REMARK   43  A    between atoms: _94  and  _95
REMARK   44  A    between atoms: _100  and  _102
REMARK   45  A    between atoms: _102  and  _103
REMARK   46  A    between atoms: _102  and  _105
REMARK   47  A    between atoms: _105  and  _106
REMARK   48  A    between atoms: _111  and  _112
REMARK   49  A    between atoms: _114  and  _116
REMARK   50  A    between atoms: _116  and  _117
REMARK   51  A    between atoms: _119  and  _121
REMARK   52  A    between atoms: _121  and  _122
REMARK   53  A    between atoms: _121  and  _124
REMARK   54  A    between atoms: _124  and  _125
REMARK   55  A    between atoms: _130  and  _131
REMARK   56  A    between atoms: _133  and  _135
REMARK   57  A    between atoms: _135  and  _136
REMARK   58  A    between atoms: _135  and  _138
REMARK   59  A    between atoms: _138  and  _139
REMARK   60  A    between atoms: _139  and  _140
REMARK   61  A    between atoms: _140  and  _141
REMARK   62  A    between atoms: _150  and  _152
REMARK   63  A    between atoms: _152  and  _153
REMARK   64  A    between atoms: _152  and  _155
REMARK   65  A    between atoms: _155  and  _156
REMARK   66  A    between atoms: _156  and  _157
REMARK   67  A    between atoms: _157  and  _158
REMARK   68  A    between atoms: _158  and  _159
REMARK   69  A    between atoms: _163  and  _165
REMARK   70  A    between atoms: _165  and  _166
REMARK   71  A    between atoms: _169  and  _171
REMARK   72  A    between atoms: _171  and  _172
REMARK   73  A    between atoms: _171  and  _174
REMARK   74  A    between atoms: _177  and  _179
REMARK   75  A    between atoms: _179  and  _180
REMARK   76  A    between atoms: _179  and  _182
REMARK   77  A    between atoms: _182  and  _183
REMARK   78  A    between atoms: _188  and  _190
REMARK   79  A    between atoms: _190  and  _191
REMARK   80  A    between atoms: _190  and  _193
REMARK   81  A    between atoms: _196  and  _198
REMARK   82  A    between atoms: _198  and  _199
REMARK   83  A    between atoms: _198  and  _201
REMARK   84  A    between atoms: _201  and  _202
REMARK   85  A    between atoms: _205  and  _206
REMARK   86  A    between atoms: _211  and  _213
REMARK   87  A    between atoms: _213  and  _214
REMARK   88  A    between atoms: _216  and  _218
REMARK   89  A    between atoms: _218  and  _219
REMARK   90  A    between atoms: _222  and  _224
REMARK   91  A    between atoms: _224  and  _225
REMARK   92  A    between atoms: _224  and  _227
REMARK   93  A    between atoms: _227  and  _228
REMARK   94  A    between atoms: _231  and  _233
REMARK   95  A    between atoms: _233  and  _234
REMARK   96  A    between atoms: _237  and  _239
REMARK   97  A    between atoms: _239  and  _240
REMARK   98  A    between atoms: _239  and  _242
REMARK   99  A    between atoms: _242  and  _243
REMARK  100  A    between atoms: _248  and  _249
REMARK  101  A    between atoms: _251  and  _253
REMARK  102  A    between atoms: _253  and  _254
REMARK  103  A    between atoms: _256  and  _258
REMARK  104  A    between atoms: _258  and  _259
REMARK  105  A    between atoms: _262  and  _264
REMARK  106  A    between atoms: _264  and  _265
REMARK  107  A    between atoms: _264  and  _267
REMARK  108  A    between atoms: _267  and  _268
REMARK  109  A    between atoms: _271  and  _273
REMARK  110  A    between atoms: _273  and  _274
REMARK  111  A    between atoms: _276  and  _278
REMARK  112  A    between atoms: _278  and  _279
REMARK  113  A    between atoms: _281  and  _283
REMARK  114  A    between atoms: _283  and  _284
REMARK  115  A    between atoms: _283  and  _286
REMARK  116  A    between atoms: _286  and  _287
REMARK  117  A    between atoms: _293  and  _295
REMARK  118  A    between atoms: _295  and  _296
REMARK  119  A    between atoms: _295  and  _298
REMARK  120  A    between atoms: _298  and  _299
REMARK                            x       y       z     vdW  Elec       q    Type
REMARK                         _______ _______ _______ _____ _____    ______ ____
ROOT
ATOM      1  CB  ASN A   1      17.257   2.689  18.640  0.00  0.00    +0.110 C 
ENDROOT
BRANCH   1   2
ATOM      2  CG  ASN A   1      18.204   3.819  19.039  0.00  0.00    +0.221 C 
ATOM      3  OD1 ASN A   1      18.759   3.841  20.134  0.00  0.00    -0.275 OA
ATOM      4  ND2 ASN A   1      18.389   4.763  18.136  0.00  0.00    -0.329 N 
ATOM      5 HD21 ASN A   1      19.023   5.561  18.341  0.00  0.00    +0.145 HD
ATOM      6 HD22 ASN A   1      17.901   4.709  17.219  0.00  0.00    +0.145 HD
ENDBRANCH   1   2
BRANCH   1   7
ATOM      7  CA  ASN A   1      16.932   1.730  19.793  0.00  0.00    +0.142 C 
BRANCH   7   8
ATOM      8  N   ASN A   1      16.003   0.700  19.341  0.00  0.00    -0.239 NA
ATOM      9  H   ASN A   1      15.400   0.897  18.517  0.00  0.00    +0.142 HD
ENDBRANCH   7   8
BRANCH   7  10
ATOM     10  C   ASN A   1      16.323   2.480  20.980  0.00  0.00    +0.225 C 
ATOM     11  O   ASN A   1      15.528   3.400  20.799  0.00  0.00    -0.287 OA
ENDBRANCH   7  10
ENDBRANCH   1   7
TORSDOF 4
REMARK  Name = ../refined-set-2016/3gtc/3gtc_pocket.pdb
REMARK  120 active torsions:
REMARK  status: ('A' for Active; 'I' for Inactive)
REMARK    1  A    between atoms: _1  and  _3
REMARK    2  A    between atoms: _3  and  _4
REMARK    3  A    between atoms: _3  and  _6
REMARK    4  A    between atoms: _6  and  _7
REMARK    5  A    between atoms: _7  and  _8
REMARK    6  A    between atoms: _11  and  _13
REMARK    7  A    between atoms: _13  and  _14
REMARK    8  A    between atoms: _16  and  _18
REMARK    9  A    between atoms: _18  and  _19
REMARK   10  A    between atoms: _18  and  _21
REMARK   11  A    between atoms: _21  and  _22
REMARK   12  A    between atoms: _24  and  _26
REMARK   13  A    between atoms: _26  and  _27
REMARK   14  A    between atoms: _26  and  _29
REMARK   15  A    between atoms: _29  and  _30
REMARK   16  A    between atoms: _30  and  _31
REMARK   17  A    between atoms: _31  and  _32
REMARK   18  A    between atoms: _32  and  _33
REMARK   19  A    between atoms: _37  and  _39
REMARK   20  A    between atoms: _39  and  _40
REMARK   21  A    between atoms: _39  and  _42
REMARK   22  A    between atoms: _42  and  _43
REMARK   23  A    between atoms: _46  and  _48
REMARK   24  A    between atoms: _48  and  _49
REMARK   25  A    between atoms: _48  and  _51
REMARK   26  A    between atoms: _51  and  _52
REMARK   27  A    between atoms: _52  and  _53
REMARK   28  A    between atoms: _58  and  _60
REMARK   29  A    between atoms: _60  and  _61
REMARK   30  A    between atoms: _60  and  _63
REMARK   31  A    between atoms: _66  and  _68
REMARK   32  A    between atoms: _68  and  _69
REMARK   33  A    between atoms: _68  and  _71
REMARK   34  A    between atoms: _71  and  _72
REMARK   35  A    between atoms: _75  and  _77
REMARK   36  A    between atoms: _77  and  _78
REMARK   37  A    between atoms: _77  and  _80
REMARK   38  A    between atoms: _80  and  _81
REMARK   39  A    between atoms: _86  and  _87
REMARK   40  A    between atoms: _89  and  _91
REMARK   41  A    between atoms: _91  and  _92
REMARK   42  A    between atoms: _91  and  _94
REMARK   43  A    between atoms: _94  and  _95
REMARK   44  A    between atoms: _100  and  _102
REMARK   45  A    between atoms: _102  and  _103
REMARK   46  A    between atoms: _102  and  _105
REMARK   47  A    between atoms: _105  and  _106
REMARK   48  A    between atoms: _111  and  _112
REMARK   49  A    between atoms: _114  and  _116
REMARK   50  A    between atoms: _116  and  _117
REMARK   51  A    between atoms: _119  and  _121
REMARK   52  A    between atoms: _121  and  _122
REMARK   53  A    between atoms: _121  and  _124
REMARK   54  A    between atoms: _124  and  _125
REMARK   55  A    between atoms: _130  and  _131
REMARK   56  A    between atoms: _133  and  _135
REMARK   57  A    between atoms: _135  and  _136
REMARK   58  A    between atoms: _135  and  _138
REMARK   59  A    between atoms: _138  and  _139
REMARK   60  A    between atoms: _139  and  _140
REMARK   61  A    between atoms: _140  and  _141
REMARK   62  A    between atoms: _150  and  _152
REMARK   63  A    between atoms: _152  and  _153
REMARK   64  A    between atoms: _152  and  _155
REMARK   65  A    between atoms: _155  and  _156
REMARK   66  A    between atoms: _156  and  _157
REMARK   67  A    between atoms: _157  and  _158
REMARK   68  A    between atoms: _158  and  _159
REMARK   69  A    between atoms: _163  and  _165
REMARK   70  A    between atoms: _165  and  _166
REMARK   71  A    between atoms: _169  and  _171
REMARK   72  A    between atoms: _171  and  _172
REMARK   73  A    between atoms: _171  and  _174
REMARK   74  A    between atoms: _177  and  _179
REMARK   75  A    between atoms: _179  and  _180
REMARK   76  A    between atoms: _179  and  _182
REMARK   77  A    between atoms: _182  and  _183
REMARK   78  A    between atoms: _188  and  _190
REMARK   79  A    between atoms: _190  and  _191
REMARK   80  A    between atoms: _190  and  _193
REMARK   81  A    between atoms: _196  and  _198
REMARK   82  A    between atoms: _198  and  _199
REMARK   83  A    between atoms: _198  and  _201
REMARK   84  A    between atoms: _201  and  _202
REMARK   85  A    between atoms: _205  and  _206
REMARK   86  A    between atoms: _211  and  _213
REMARK   87  A    between atoms: _213  and  _214
REMARK   88  A    between atoms: _216  and  _218
REMARK   89  A    between atoms: _218  and  _219
REMARK   90  A    between atoms: _222  and  _224
REMARK   91  A    between atoms: _224  and  _225
REMARK   92  A    between atoms: _224  and  _227
REMARK   93  A    between atoms: _227  and  _228
REMARK   94  A    between atoms: _231  and  _233
REMARK   95  A    between atoms: _233  and  _234
REMARK   96  A    between atoms: _237  and  _239
REMARK   97  A    between atoms: _239  and  _240
REMARK   98  A    between atoms: _239  and  _242
REMARK   99  A    between atoms: _242  and  _243
REMARK  100  A    between atoms: _248  and  _249
REMARK  101  A    between atoms: _251  and  _253
REMARK  102  A    between atoms: _253  and  _254
REMARK  103  A    between atoms: _256  and  _258
REMARK  104  A    between atoms: _258  and  _259
REMARK  105  A    between atoms: _262  and  _264
REMARK  106  A    between atoms: _264  and  _265
REMARK  107  A    between atoms: _264  and  _267
REMARK  108  A    between atoms: _267  and  _268
REMARK  109  A    between atoms: _271  and  _273
REMARK  110  A    between atoms: _273  and  _274
REMARK  111  A    between atoms: _276  and  _278
REMARK  112  A    between atoms: _278  and  _279
REMARK  113  A    between atoms: _281  and  _283
REMARK  114  A    between atoms: _283  and  _284
REMARK  115  A    between atoms: _283  and  _286
REMARK  116  A    between atoms: _286  and  _287
REMARK  117  A    between atoms: _293  and  _295
REMARK  118  A    between atoms: _295  and  _296
REMARK  119  A    between atoms: _295  and  _298
REMARK  120  A    between atoms: _298  and  _299
REMARK                            x       y       z     vdW  Elec       q    Type
REMARK                         _______ _______ _______ _____ _____    ______ ____
ROOT
ATOM      1  O   HOH     1      17.346  -1.223  11.835  0.00  0.00    +0.000 OA
ENDROOT
TORSDOF 0
REMARK  Name = ../refined-set-2016/3gtc/3gtc_pocket.pdb
REMARK  120 active torsions:
REMARK  status: ('A' for Active; 'I' for Inactive)
REMARK    1  A    between atoms: _1  and  _3
REMARK    2  A    between atoms: _3  and  _4
REMARK    3  A    between atoms: _3  and  _6
REMARK    4  A    between atoms: _6  and  _7
REMARK    5  A    between atoms: _7  and  _8
REMARK    6  A    between atoms: _11  and  _13
REMARK    7  A    between atoms: _13  and  _14
REMARK    8  A    between atoms: _16  and  _18
REMARK    9  A    between atoms: _18  and  _19
REMARK   10  A    between atoms: _18  and  _21
REMARK   11  A    between atoms: _21  and  _22
REMARK   12  A    between atoms: _24  and  _26
REMARK   13  A    between atoms: _26  and  _27
REMARK   14  A    between atoms: _26  and  _29
REMARK   15  A    between atoms: _29  and  _30
REMARK   16  A    between atoms: _30  and  _31
REMARK   17  A    between atoms: _31  and  _32
REMARK   18  A    between atoms: _32  and  _33
REMARK   19  A    between atoms: _37  and  _39
REMARK   20  A    between atoms: _39  and  _40
REMARK   21  A    between atoms: _39  and  _42
REMARK   22  A    between atoms: _42  and  _43
REMARK   23  A    between atoms: _46  and  _48
REMARK   24  A    between atoms: _48  and  _49
REMARK   25  A    between atoms: _48  and  _51
REMARK   26  A    between atoms: _51  and  _52
REMARK   27  A    between atoms: _52  and  _53
REMARK   28  A    between atoms: _58  and  _60
REMARK   29  A    between atoms: _60  and  _61
REMARK   30  A    between atoms: _60  and  _63
REMARK   31  A    between atoms: _66  and  _68
REMARK   32  A    between atoms: _68  and  _69
REMARK   33  A    between atoms: _68  and  _71
REMARK   34  A    between atoms: _71  and  _72
REMARK   35  A    between atoms: _75  and  _77
REMARK   36  A    between atoms: _77  and  _78
REMARK   37  A    between atoms: _77  and  _80
REMARK   38  A    between atoms: _80  and  _81
REMARK   39  A    between atoms: _86  and  _87
REMARK   40  A    between atoms: _89  and  _91
REMARK   41  A    between atoms: _91  and  _92
REMARK   42  A    between atoms: _91  and  _94
REMARK   43  A    between atoms: _94  and  _95
REMARK   44  A    between atoms: _100  and  _102
REMARK   45  A    between atoms: _102  and  _103
REMARK   46  A    between atoms: _102  and  _105
REMARK   47  A    between atoms: _105  and  _106
REMARK   48  A    between atoms: _111  and  _112
REMARK   49  A    between atoms: _114  and  _116
REMARK   50  A    between atoms: _116  and  _117
REMARK   51  A    between atoms: _119  and  _121
REMARK   52  A    between atoms: _121  and  _122
REMARK   53  A    between atoms: _121  and  _124
REMARK   54  A    between atoms: _124  and  _125
REMARK   55  A    between atoms: _130  and  _131
REMARK   56  A    between atoms: _133  and  _135
REMARK   57  A    between atoms: _135  and  _136
REMARK   58  A    between atoms: _135  and  _138
REMARK   59  A    between atoms: _138  and  _139
REMARK   60  A    between atoms: _139  and  _140
REMARK   61  A    between atoms: _140  and  _141
REMARK   62  A    between atoms: _150  and  _152
REMARK   63  A    between atoms: _152  and  _153
REMARK   64  A    between atoms: _152  and  _155
REMARK   65  A    between atoms: _155  and  _156
REMARK   66  A    between atoms: _156  and  _157
REMARK   67  A    between atoms: _157  and  _158
REMARK   68  A    between atoms: _158  and  _159
REMARK   69  A    between atoms: _163  and  _165
REMARK   70  A    between atoms: _165  and  _166
REMARK   71  A    between atoms: _169  and  _171
REMARK   72  A    between atoms: _171  and  _172
REMARK   73  A    between atoms: _171  and  _174
REMARK   74  A    between atoms: _177  and  _179
REMARK   75  A    between atoms: _179  and  _180
REMARK   76  A    between atoms: _179  and  _182
REMARK   77  A    between atoms: _182  and  _183
REMARK   78  A    between atoms: _188  and  _190
REMARK   79  A    between atoms: _190  and  _191
REMARK   80  A    between atoms: _190  and  _193
REMARK   81  A    between atoms: _196  and  _198
REMARK   82  A    between atoms: _198  and  _199
REMARK   83  A    between atoms: _198  and  _201
REMARK   84  A    between atoms: _201  and  _202
REMARK   85  A    between atoms: _205  and  _206
REMARK   86  A    between atoms: _211  and  _213
REMARK   87  A    between atoms: _213  and  _214
REMARK   88  A    between atoms: _216  and  _218
REMARK   89  A    between atoms: _218  and  _219
REMARK   90  A    between atoms: _222  and  _224
REMARK   91  A    between atoms: _224  and  _225
REMARK   92  A    between atoms: _224  and  _227
REMARK   93  A    between atoms: _227  and  _228
REMARK   94  A    between atoms: _231  and  _233
REMARK   95  A    between atoms: _233  and  _234
REMARK   96  A    between atoms: _237  and  _239
REMARK   97  A    between atoms: _239  and  _240
REMARK   98  A    between atoms: _239  and  _242
REMARK   99  A    between atoms: _242  and  _243
REMARK  100  A    between atoms: _248  and  _249
REMARK  101  A    between atoms: _251  and  _253
REMARK  102  A    between atoms: _253  and  _254
REMARK  103  A    between atoms: _256  and  _258
REMARK  104  A    between atoms: _258  and  _259
REMARK  105  A    between atoms: _262  and  _264
REMARK  106  A    between atoms: _264  and  _265
REMARK  107  A    between atoms: _264  and  _267
REMARK  108  A    between atoms: _267  and  _268
REMARK  109  A    between atoms: _271  and  _273
REMARK  110  A    between atoms: _273  and  _274
REMARK  111  A    between atoms: _276  and  _278
REMARK  112  A    between atoms: _278  and  _279
REMARK  113  A    between atoms: _281  and  _283
REMARK  114  A    between atoms: _283  and  _284
REMARK  115  A    between atoms: _283  and  _286
REMARK  116  A    between atoms: _286  and  _287
REMARK  117  A    between atoms: _293  and  _295
REMARK  118  A    between atoms: _295  and  _296
REMARK  119  A    between atoms: _295  and  _298
REMARK  120  A    between atoms: _298  and  _299
REMARK                            x       y       z     vdW  Elec       q    Type
REMARK                         _______ _______ _______ _____ _____    ______ ____
ROOT
ATOM      1  O   HOH     1      16.684   7.964  17.295  0.00  0.00    +0.000 OA
ENDROOT
TORSDOF 0
REMARK  Name = ../refined-set-2016/3gtc/3gtc_pocket.pdb
REMARK  120 active torsions:
REMARK  status: ('A' for Active; 'I' for Inactive)
REMARK    1  A    between atoms: _1  and  _3
REMARK    2  A    between atoms: _3  and  _4
REMARK    3  A    between atoms: _3  and  _6
REMARK    4  A    between atoms: _6  and  _7
REMARK    5  A    between atoms: _7  and  _8
REMARK    6  A    between atoms: _11  and  _13
REMARK    7  A    between atoms: _13  and  _14
REMARK    8  A    between atoms: _16  and  _18
REMARK    9  A    between atoms: _18  and  _19
REMARK   10  A    between atoms: _18  and  _21
REMARK   11  A    between atoms: _21  and  _22
REMARK   12  A    between atoms: _24  and  _26
REMARK   13  A    between atoms: _26  and  _27
REMARK   14  A    between atoms: _26  and  _29
REMARK   15  A    between atoms: _29  and  _30
REMARK   16  A    between atoms: _30  and  _31
REMARK   17  A    between atoms: _31  and  _32
REMARK   18  A    between atoms: _32  and  _33
REMARK   19  A    between atoms: _37  and  _39
REMARK   20  A    between atoms: _39  and  _40
REMARK   21  A    between atoms: _39  and  _42
REMARK   22  A    between atoms: _42  and  _43
REMARK   23  A    between atoms: _46  and  _48
REMARK   24  A    between atoms: _48  and  _49
REMARK   25  A    between atoms: _48  and  _51
REMARK   26  A    between atoms: _51  and  _52
REMARK   27  A    between atoms: _52  and  _53
REMARK   28  A    between atoms: _58  and  _60
REMARK   29  A    between atoms: _60  and  _61
REMARK   30  A    between atoms: _60  and  _63
REMARK   31  A    between atoms: _66  and  _68
REMARK   32  A    between atoms: _68  and  _69
REMARK   33  A    between atoms: _68  and  _71
REMARK   34  A    between atoms: _71  and  _72
REMARK   35  A    between atoms: _75  and  _77
REMARK   36  A    between atoms: _77  and  _78
REMARK   37  A    between atoms: _77  and  _80
REMARK   38  A    between atoms: _80  and  _81
REMARK   39  A    between atoms: _86  and  _87
REMARK   40  A    between atoms: _89  and  _91
REMARK   41  A    between atoms: _91  and  _92
REMARK   42  A    between atoms: _91  and  _94
REMARK   43  A    between atoms: _94  and  _95
REMARK   44  A    between atoms: _100  and  _102
REMARK   45  A    between atoms: _102  and  _103
REMARK   46  A    between atoms: _102  and  _105
REMARK   47  A    between atoms: _105  and  _106
REMARK   48  A    between atoms: _111  and  _112
REMARK   49  A    between atoms: _114  and  _116
REMARK   50  A    between atoms: _116  and  _117
REMARK   51  A    between atoms: _119  and  _121
REMARK   52  A    between atoms: _121  and  _122
REMARK   53  A    between atoms: _121  and  _124
REMARK   54  A    between atoms: _124  and  _125
REMARK   55  A    between atoms: _130  and  _131
REMARK   56  A    between atoms: _133  and  _135
REMARK   57  A    between atoms: _135  and  _136
REMARK   58  A    between atoms: _135  and  _138
REMARK   59  A    between atoms: _138  and  _139
REMARK   60  A    between atoms: _139  and  _140
REMARK   61  A    between atoms: _140  and  _141
REMARK   62  A    between atoms: _150  and  _152
REMARK   63  A    between atoms: _152  and  _153
REMARK   64  A    between atoms: _152  and  _155
REMARK   65  A    between atoms: _155  and  _156
REMARK   66  A    between atoms: _156  and  _157
REMARK   67  A    between atoms: _157  and  _158
REMARK   68  A    between atoms: _158  and  _159
REMARK   69  A    between atoms: _163  and  _165
REMARK   70  A    between atoms: _165  and  _166
REMARK   71  A    between atoms: _169  and  _171
REMARK   72  A    between atoms: _171  and  _172
REMARK   73  A    between atoms: _171  and  _174
REMARK   74  A    between atoms: _177  and  _179
REMARK   75  A    between atoms: _179  and  _180
REMARK   76  A    between atoms: _179  and  _182
REMARK   77  A    between atoms: _182  and  _183
REMARK   78  A    between atoms: _188  and  _190
REMARK   79  A    between atoms: _190  and  _191
REMARK   80  A    between atoms: _190  and  _193
REMARK   81  A    between atoms: _196  and  _198
REMARK   82  A    between atoms: _198  and  _199
REMARK   83  A    between atoms: _198  and  _201
REMARK   84  A    between atoms: _201  and  _202
REMARK   85  A    between atoms: _205  and  _206
REMARK   86  A    between atoms: _211  and  _213
REMARK   87  A    between atoms: _213  and  _214
REMARK   88  A    between atoms: _216  and  _218
REMARK   89  A    between atoms: _218  and  _219
REMARK   90  A    between atoms: _222  and  _224
REMARK   91  A    between atoms: _224  and  _225
REMARK   92  A    between atoms: _224  and  _227
REMARK   93  A    between atoms: _227  and  _228
REMARK   94  A    between atoms: _231  and  _233
REMARK   95  A    between atoms: _233  and  _234
REMARK   96  A    between atoms: _237  and  _239
REMARK   97  A    between atoms: _239  and  _240
REMARK   98  A    between atoms: _239  and  _242
REMARK   99  A    between atoms: _242  and  _243
REMARK  100  A    between atoms: _248  and  _249
REMARK  101  A    between atoms: _251  and  _253
REMARK  102  A    between atoms: _253  and  _254
REMARK  103  A    between atoms: _256  and  _258
REMARK  104  A    between atoms: _258  and  _259
REMARK  105  A    between atoms: _262  and  _264
REMARK  106  A    between atoms: _264  and  _265
REMARK  107  A    between atoms: _264  and  _267
REMARK  108  A    between atoms: _267  and  _268
REMARK  109  A    between atoms: _271  and  _273
REMARK  110  A    between atoms: _273  and  _274
REMARK  111  A    between atoms: _276  and  _278
REMARK  112  A    between atoms: _278  and  _279
REMARK  113  A    between atoms: _281  and  _283
REMARK  114  A    between atoms: _283  and  _284
REMARK  115  A    between atoms: _283  and  _286
REMARK  116  A    between atoms: _286  and  _287
REMARK  117  A    between atoms: _293  and  _295
REMARK  118  A    between atoms: _295  and  _296
REMARK  119  A    between atoms: _295  and  _298
REMARK  120  A    between atoms: _298  and  _299
REMARK                            x       y       z     vdW  Elec       q    Type
REMARK                         _______ _______ _______ _____ _____    ______ ____
ROOT
ATOM      1  O   HOH     1      24.883  -2.825  12.462  0.00  0.00    +0.000 OA
ENDROOT
TORSDOF 0
REMARK  Name = ../refined-set-2016/3gtc/3gtc_pocket.pdb
REMARK  120 active torsions:
REMARK  status: ('A' for Active; 'I' for Inactive)
REMARK    1  A    between atoms: _1  and  _3
REMARK    2  A    between atoms: _3  and  _4
REMARK    3  A    between atoms: _3  and  _6
REMARK    4  A    between atoms: _6  and  _7
REMARK    5  A    between atoms: _7  and  _8
REMARK    6  A    between atoms: _11  and  _13
REMARK    7  A    between atoms: _13  and  _14
REMARK    8  A    between atoms: _16  and  _18
REMARK    9  A    between atoms: _18  and  _19
REMARK   10  A    between atoms: _18  and  _21
REMARK   11  A    between atoms: _21  and  _22
REMARK   12  A    between atoms: _24  and  _26
REMARK   13  A    between atoms: _26  and  _27
REMARK   14  A    between atoms: _26  and  _29
REMARK   15  A    between atoms: _29  and  _30
REMARK   16  A    between atoms: _30  and  _31
REMARK   17  A    between atoms: _31  and  _32
REMARK   18  A    between atoms: _32  and  _33
REMARK   19  A    between atoms: _37  and  _39
REMARK   20  A    between atoms: _39  and  _40
REMARK   21  A    between atoms: _39  and  _42
REMARK   22  A    between atoms: _42  and  _43
REMARK   23  A    between atoms: _46  and  _48
REMARK   24  A    between atoms: _48  and  _49
REMARK   25  A    between atoms: _48  and  _51
REMARK   26  A    between atoms: _51  and  _52
REMARK   27  A    between atoms: _52  and  _53
REMARK   28  A    between atoms: _58  and  _60
REMARK   29  A    between atoms: _60  and  _61
REMARK   30  A    between atoms: _60  and  _63
REMARK   31  A    between atoms: _66  and  _68
REMARK   32  A    between atoms: _68  and  _69
REMARK   33  A    between atoms: _68  and  _71
REMARK   34  A    between atoms: _71  and  _72
REMARK   35  A    between atoms: _75  and  _77
REMARK   36  A    between atoms: _77  and  _78
REMARK   37  A    between atoms: _77  and  _80
REMARK   38  A    between atoms: _80  and  _81
REMARK   39  A    between atoms: _86  and  _87
REMARK   40  A    between atoms: _89  and  _91
REMARK   41  A    between atoms: _91  and  _92
REMARK   42  A    between atoms: _91  and  _94
REMARK   43  A    between atoms: _94  and  _95
REMARK   44  A    between atoms: _100  and  _102
REMARK   45  A    between atoms: _102  and  _103
REMARK   46  A    between atoms: _102  and  _105
REMARK   47  A    between atoms: _105  and  _106
REMARK   48  A    between atoms: _111  and  _112
REMARK   49  A    between atoms: _114  and  _116
REMARK   50  A    between atoms: _116  and  _117
REMARK   51  A    between atoms: _119  and  _121
REMARK   52  A    between atoms: _121  and  _122
REMARK   53  A    between atoms: _121  and  _124
REMARK   54  A    between atoms: _124  and  _125
REMARK   55  A    between atoms: _130  and  _131
REMARK   56  A    between atoms: _133  and  _135
REMARK   57  A    between atoms: _135  and  _136
REMARK   58  A    between atoms: _135  and  _138
REMARK   59  A    between atoms: _138  and  _139
REMARK   60  A    between atoms: _139  and  _140
REMARK   61  A    between atoms: _140  and  _141
REMARK   62  A    between atoms: _150  and  _152
REMARK   63  A    between atoms: _152  and  _153
REMARK   64  A    between atoms: _152  and  _155
REMARK   65  A    between atoms: _155  and  _156
REMARK   66  A    between atoms: _156  and  _157
REMARK   67  A    between atoms: _157  and  _158
REMARK   68  A    between atoms: _158  and  _159
REMARK   69  A    between atoms: _163  and  _165
REMARK   70  A    between atoms: _165  and  _166
REMARK   71  A    between atoms: _169  and  _171
REMARK   72  A    between atoms: _171  and  _172
REMARK   73  A    between atoms: _171  and  _174
REMARK   74  A    between atoms: _177  and  _179
REMARK   75  A    between atoms: _179  and  _180
REMARK   76  A    between atoms: _179  and  _182
REMARK   77  A    between atoms: _182  and  _183
REMARK   78  A    between atoms: _188  and  _190
REMARK   79  A    between atoms: _190  and  _191
REMARK   80  A    between atoms: _190  and  _193
REMARK   81  A    between atoms: _196  and  _198
REMARK   82  A    between atoms: _198  and  _199
REMARK   83  A    between atoms: _198  and  _201
REMARK   84  A    between atoms: _201  and  _202
REMARK   85  A    between atoms: _205  and  _206
REMARK   86  A    between atoms: _211  and  _213
REMARK   87  A    between atoms: _213  and  _214
REMARK   88  A    between atoms: _216  and  _218
REMARK   89  A    between atoms: _218  and  _219
REMARK   90  A    between atoms: _222  and  _224
REMARK   91  A    between atoms: _224  and  _225
REMARK   92  A    between atoms: _224  and  _227
REMARK   93  A    between atoms: _227  and  _228
REMARK   94  A    between atoms: _231  and  _233
REMARK   95  A    between atoms: _233  and  _234
REMARK   96  A    between atoms: _237  and  _239
REMARK   97  A    between atoms: _239  and  _240
REMARK   98  A    between atoms: _239  and  _242
REMARK   99  A    between atoms: _242  and  _243
REMARK  100  A    between atoms: _248  and  _249
REMARK  101  A    between atoms: _251  and  _253
REMARK  102  A    between atoms: _253  and  _254
REMARK  103  A    between atoms: _256  and  _258
REMARK  104  A    between atoms: _258  and  _259
REMARK  105  A    between atoms: _262  and  _264
REMARK  106  A    between atoms: _264  and  _265
REMARK  107  A    between atoms: _264  and  _267
REMARK  108  A    between atoms: _267  and  _268
REMARK  109  A    between atoms: _271  and  _273
REMARK  110  A    between atoms: _273  and  _274
REMARK  111  A    between atoms: _276  and  _278
REMARK  112  A    between atoms: _278  and  _279
REMARK  113  A    between atoms: _281  and  _283
REMARK  114  A    between atoms: _283  and  _284
REMARK  115  A    between atoms: _283  and  _286
REMARK  116  A    between atoms: _286  and  _287
REMARK  117  A    between atoms: _293  and  _295
REMARK  118  A    between atoms: _295  and  _296
REMARK  119  A    between atoms: _295  and  _298
REMARK  120  A    between atoms: _298  and  _299
REMARK                            x       y       z     vdW  Elec       q    Type
REMARK                         _______ _______ _______ _____ _____    ______ ____
ROOT
ATOM      1  O   HOH     1      26.815   6.482   6.198  0.00  0.00    +0.000 OA
ENDROOT
TORSDOF 0
REMARK  Name = ../refined-set-2016/3gtc/3gtc_pocket.pdb
REMARK  120 active torsions:
REMARK  status: ('A' for Active; 'I' for Inactive)
REMARK    1  A    between atoms: _1  and  _3
REMARK    2  A    between atoms: _3  and  _4
REMARK    3  A    between atoms: _3  and  _6
REMARK    4  A    between atoms: _6  and  _7
REMARK    5  A    between atoms: _7  and  _8
REMARK    6  A    between atoms: _11  and  _13
REMARK    7  A    between atoms: _13  and  _14
REMARK    8  A    between atoms: _16  and  _18
REMARK    9  A    between atoms: _18  and  _19
REMARK   10  A    between atoms: _18  and  _21
REMARK   11  A    between atoms: _21  and  _22
REMARK   12  A    between atoms: _24  and  _26
REMARK   13  A    between atoms: _26  and  _27
REMARK   14  A    between atoms: _26  and  _29
REMARK   15  A    between atoms: _29  and  _30
REMARK   16  A    between atoms: _30  and  _31
REMARK   17  A    between atoms: _31  and  _32
REMARK   18  A    between atoms: _32  and  _33
REMARK   19  A    between atoms: _37  and  _39
REMARK   20  A    between atoms: _39  and  _40
REMARK   21  A    between atoms: _39  and  _42
REMARK   22  A    between atoms: _42  and  _43
REMARK   23  A    between atoms: _46  and  _48
REMARK   24  A    between atoms: _48  and  _49
REMARK   25  A    between atoms: _48  and  _51
REMARK   26  A    between atoms: _51  and  _52
REMARK   27  A    between atoms: _52  and  _53
REMARK   28  A    between atoms: _58  and  _60
REMARK   29  A    between atoms: _60  and  _61
REMARK   30  A    between atoms: _60  and  _63
REMARK   31  A    between atoms: _66  and  _68
REMARK   32  A    between atoms: _68  and  _69
REMARK   33  A    between atoms: _68  and  _71
REMARK   34  A    between atoms: _71  and  _72
REMARK   35  A    between atoms: _75  and  _77
REMARK   36  A    between atoms: _77  and  _78
REMARK   37  A    between atoms: _77  and  _80
REMARK   38  A    between atoms: _80  and  _81
REMARK   39  A    between atoms: _86  and  _87
REMARK   40  A    between atoms: _89  and  _91
REMARK   41  A    between atoms: _91  and  _92
REMARK   42  A    between atoms: _91  and  _94
REMARK   43  A    between atoms: _94  and  _95
REMARK   44  A    between atoms: _100  and  _102
REMARK   45  A    between atoms: _102  and  _103
REMARK   46  A    between atoms: _102  and  _105
REMARK   47  A    between atoms: _105  and  _106
REMARK   48  A    between atoms: _111  and  _112
REMARK   49  A    between atoms: _114  and  _116
REMARK   50  A    between atoms: _116  and  _117
REMARK   51  A    between atoms: _119  and  _121
REMARK   52  A    between atoms: _121  and  _122
REMARK   53  A    between atoms: _121  and  _124
REMARK   54  A    between atoms: _124  and  _125
REMARK   55  A    between atoms: _130  and  _131
REMARK   56  A    between atoms: _133  and  _135
REMARK   57  A    between atoms: _135  and  _136
REMARK   58  A    between atoms: _135  and  _138
REMARK   59  A    between atoms: _138  and  _139
REMARK   60  A    between atoms: _139  and  _140
REMARK   61  A    between atoms: _140  and  _141
REMARK   62  A    between atoms: _150  and  _152
REMARK   63  A    between atoms: _152  and  _153
REMARK   64  A    between atoms: _152  and  _155
REMARK   65  A    between atoms: _155  and  _156
REMARK   66  A    between atoms: _156  and  _157
REMARK   67  A    between atoms: _157  and  _158
REMARK   68  A    between atoms: _158  and  _159
REMARK   69  A    between atoms: _163  and  _165
REMARK   70  A    between atoms: _165  and  _166
REMARK   71  A    between atoms: _169  and  _171
REMARK   72  A    between atoms: _171  and  _172
REMARK   73  A    between atoms: _171  and  _174
REMARK   74  A    between atoms: _177  and  _179
REMARK   75  A    between atoms: _179  and  _180
REMARK   76  A    between atoms: _179  and  _182
REMARK   77  A    between atoms: _182  and  _183
REMARK   78  A    between atoms: _188  and  _190
REMARK   79  A    between atoms: _190  and  _191
REMARK   80  A    between atoms: _190  and  _193
REMARK   81  A    between atoms: _196  and  _198
REMARK   82  A    between atoms: _198  and  _199
REMARK   83  A    between atoms: _198  and  _201
REMARK   84  A    between atoms: _201  and  _202
REMARK   85  A    between atoms: _205  and  _206
REMARK   86  A    between atoms: _211  and  _213
REMARK   87  A    between atoms: _213  and  _214
REMARK   88  A    between atoms: _216  and  _218
REMARK   89  A    between atoms: _218  and  _219
REMARK   90  A    between atoms: _222  and  _224
REMARK   91  A    between atoms: _224  and  _225
REMARK   92  A    between atoms: _224  and  _227
REMARK   93  A    between atoms: _227  and  _228
REMARK   94  A    between atoms: _231  and  _233
REMARK   95  A    between atoms: _233  and  _234
REMARK   96  A    between atoms: _237  and  _239
REMARK   97  A    between atoms: _239  and  _240
REMARK   98  A    between atoms: _239  and  _242
REMARK   99  A    between atoms: _242  and  _243
REMARK  100  A    between atoms: _248  and  _249
REMARK  101  A    between atoms: _251  and  _253
REMARK  102  A    between atoms: _253  and  _254
REMARK  103  A    between atoms: _256  and  _258
REMARK  104  A    between atoms: _258  and  _259
REMARK  105  A    between atoms: _262  and  _264
REMARK  106  A    between atoms: _264  and  _265
REMARK  107  A    between atoms: _264  and  _267
REMARK  108  A    between atoms: _267  and  _268
REMARK  109  A    between atoms: _271  and  _273
REMARK  110  A    between atoms: _273  and  _274
REMARK  111  A    between atoms: _276  and  _278
REMARK  112  A    between atoms: _278  and  _279
REMARK  113  A    between atoms: _281  and  _283
REMARK  114  A    between atoms: _283  and  _284
REMARK  115  A    between atoms: _283  and  _286
REMARK  116  A    between atoms: _286  and  _287
REMARK  117  A    between atoms: _293  and  _295
REMARK  118  A    between atoms: _295  and  _296
REMARK  119  A    between atoms: _295  and  _298
REMARK  120  A    between atoms: _298  and  _299
REMARK                            x       y       z     vdW  Elec       q    Type
REMARK                         _______ _______ _______ _____ _____    ______ ____
ROOT
ATOM      1  O   HOH     1      27.162   8.026   8.485  0.00  0.00    +0.000 OA
ENDROOT
TORSDOF 0
REMARK  Name = ../refined-set-2016/3gtc/3gtc_pocket.pdb
REMARK  120 active torsions:
REMARK  status: ('A' for Active; 'I' for Inactive)
REMARK    1  A    between atoms: _1  and  _3
REMARK    2  A    between atoms: _3  and  _4
REMARK    3  A    between atoms: _3  and  _6
REMARK    4  A    between atoms: _6  and  _7
REMARK    5  A    between atoms: _7  and  _8
REMARK    6  A    between atoms: _11  and  _13
REMARK    7  A    between atoms: _13  and  _14
REMARK    8  A    between atoms: _16  and  _18
REMARK    9  A    between atoms: _18  and  _19
REMARK   10  A    between atoms: _18  and  _21
REMARK   11  A    between atoms: _21  and  _22
REMARK   12  A    between atoms: _24  and  _26
REMARK   13  A    between atoms: _26  and  _27
REMARK   14  A    between atoms: _26  and  _29
REMARK   15  A    between atoms: _29  and  _30
REMARK   16  A    between atoms: _30  and  _31
REMARK   17  A    between atoms: _31  and  _32
REMARK   18  A    between atoms: _32  and  _33
REMARK   19  A    between atoms: _37  and  _39
REMARK   20  A    between atoms: _39  and  _40
REMARK   21  A    between atoms: _39  and  _42
REMARK   22  A    between atoms: _42  and  _43
REMARK   23  A    between atoms: _46  and  _48
REMARK   24  A    between atoms: _48  and  _49
REMARK   25  A    between atoms: _48  and  _51
REMARK   26  A    between atoms: _51  and  _52
REMARK   27  A    between atoms: _52  and  _53
REMARK   28  A    between atoms: _58  and  _60
REMARK   29  A    between atoms: _60  and  _61
REMARK   30  A    between atoms: _60  and  _63
REMARK   31  A    between atoms: _66  and  _68
REMARK   32  A    between atoms: _68  and  _69
REMARK   33  A    between atoms: _68  and  _71
REMARK   34  A    between atoms: _71  and  _72
REMARK   35  A    between atoms: _75  and  _77
REMARK   36  A    between atoms: _77  and  _78
REMARK   37  A    between atoms: _77  and  _80
REMARK   38  A    between atoms: _80  and  _81
REMARK   39  A    between atoms: _86  and  _87
REMARK   40  A    between atoms: _89  and  _91
REMARK   41  A    between atoms: _91  and  _92
REMARK   42  A    between atoms: _91  and  _94
REMARK   43  A    between atoms: _94  and  _95
REMARK   44  A    between atoms: _100  and  _102
REMARK   45  A    between atoms: _102  and  _103
REMARK   46  A    between atoms: _102  and  _105
REMARK   47  A    between atoms: _105  and  _106
REMARK   48  A    between atoms: _111  and  _112
REMARK   49  A    between atoms: _114  and  _116
REMARK   50  A    between atoms: _116  and  _117
REMARK   51  A    between atoms: _119  and  _121
REMARK   52  A    between atoms: _121  and  _122
REMARK   53  A    between atoms: _121  and  _124
REMARK   54  A    between atoms: _124  and  _125
REMARK   55  A    between atoms: _130  and  _131
REMARK   56  A    between atoms: _133  and  _135
REMARK   57  A    between atoms: _135  and  _136
REMARK   58  A    between atoms: _135  and  _138
REMARK   59  A    between atoms: _138  and  _139
REMARK   60  A    between atoms: _139  and  _140
REMARK   61  A    between atoms: _140  and  _141
REMARK   62  A    between atoms: _150  and  _152
REMARK   63  A    between atoms: _152  and  _153
REMARK   64  A    between atoms: _152  and  _155
REMARK   65  A    between atoms: _155  and  _156
REMARK   66  A    between atoms: _156  and  _157
REMARK   67  A    between atoms: _157  and  _158
REMARK   68  A    between atoms: _158  and  _159
REMARK   69  A    between atoms: _163  and  _165
REMARK   70  A    between atoms: _165  and  _166
REMARK   71  A    between atoms: _169  and  _171
REMARK   72  A    between atoms: _171  and  _172
REMARK   73  A    between atoms: _171  and  _174
REMARK   74  A    between atoms: _177  and  _179
REMARK   75  A    between atoms: _179  and  _180
REMARK   76  A    between atoms: _179  and  _182
REMARK   77  A    between atoms: _182  and  _183
REMARK   78  A    between atoms: _188  and  _190
REMARK   79  A    between atoms: _190  and  _191
REMARK   80  A    between atoms: _190  and  _193
REMARK   81  A    between atoms: _196  and  _198
REMARK   82  A    between atoms: _198  and  _199
REMARK   83  A    between atoms: _198  and  _201
REMARK   84  A    between atoms: _201  and  _202
REMARK   85  A    between atoms: _205  and  _206
REMARK   86  A    between atoms: _211  and  _213
REMARK   87  A    between atoms: _213  and  _214
REMARK   88  A    between atoms: _216  and  _218
REMARK   89  A    between atoms: _218  and  _219
REMARK   90  A    between atoms: _222  and  _224
REMARK   91  A    between atoms: _224  and  _225
REMARK   92  A    between atoms: _224  and  _227
REMARK   93  A    between atoms: _227  and  _228
REMARK   94  A    between atoms: _231  and  _233
REMARK   95  A    between atoms: _233  and  _234
REMARK   96  A    between atoms: _237  and  _239
REMARK   97  A    between atoms: _239  and  _240
REMARK   98  A    between atoms: _239  and  _242
REMARK   99  A    between atoms: _242  and  _243
REMARK  100  A    between atoms: _248  and  _249
REMARK  101  A    between atoms: _251  and  _253
REMARK  102  A    between atoms: _253  and  _254
REMARK  103  A    between atoms: _256  and  _258
REMARK  104  A    between atoms: _258  and  _259
REMARK  105  A    between atoms: _262  and  _264
REMARK  106  A    between atoms: _264  and  _265
REMARK  107  A    between atoms: _264  and  _267
REMARK  108  A    between atoms: _267  and  _268
REMARK  109  A    between atoms: _271  and  _273
REMARK  110  A    between atoms: _273  and  _274
REMARK  111  A    between atoms: _276  and  _278
REMARK  112  A    between atoms: _278  and  _279
REMARK  113  A    between atoms: _281  and  _283
REMARK  114  A    between atoms: _283  and  _284
REMARK  115  A    between atoms: _283  and  _286
REMARK  116  A    between atoms: _286  and  _287
REMARK  117  A    between atoms: _293  and  _295
REMARK  118  A    between atoms: _295  and  _296
REMARK  119  A    between atoms: _295  and  _298
REMARK  120  A    between atoms: _298  and  _299
REMARK                            x       y       z     vdW  Elec       q    Type
REMARK                         _______ _______ _______ _____ _____    ______ ____
ROOT
ATOM      1  O   HOH     1      14.272  -1.842   6.190  0.00  0.00    +0.000 OA
ENDROOT
TORSDOF 0
REMARK  Name = ../refined-set-2016/3gtc/3gtc_pocket.pdb
REMARK  120 active torsions:
REMARK  status: ('A' for Active; 'I' for Inactive)
REMARK    1  A    between atoms: _1  and  _3
REMARK    2  A    between atoms: _3  and  _4
REMARK    3  A    between atoms: _3  and  _6
REMARK    4  A    between atoms: _6  and  _7
REMARK    5  A    between atoms: _7  and  _8
REMARK    6  A    between atoms: _11  and  _13
REMARK    7  A    between atoms: _13  and  _14
REMARK    8  A    between atoms: _16  and  _18
REMARK    9  A    between atoms: _18  and  _19
REMARK   10  A    between atoms: _18  and  _21
REMARK   11  A    between atoms: _21  and  _22
REMARK   12  A    between atoms: _24  and  _26
REMARK   13  A    between atoms: _26  and  _27
REMARK   14  A    between atoms: _26  and  _29
REMARK   15  A    between atoms: _29  and  _30
REMARK   16  A    between atoms: _30  and  _31
REMARK   17  A    between atoms: _31  and  _32
REMARK   18  A    between atoms: _32  and  _33
REMARK   19  A    between atoms: _37  and  _39
REMARK   20  A    between atoms: _39  and  _40
REMARK   21  A    between atoms: _39  and  _42
REMARK   22  A    between atoms: _42  and  _43
REMARK   23  A    between atoms: _46  and  _48
REMARK   24  A    between atoms: _48  and  _49
REMARK   25  A    between atoms: _48  and  _51
REMARK   26  A    between atoms: _51  and  _52
REMARK   27  A    between atoms: _52  and  _53
REMARK   28  A    between atoms: _58  and  _60
REMARK   29  A    between atoms: _60  and  _61
REMARK   30  A    between atoms: _60  and  _63
REMARK   31  A    between atoms: _66  and  _68
REMARK   32  A    between atoms: _68  and  _69
REMARK   33  A    between atoms: _68  and  _71
REMARK   34  A    between atoms: _71  and  _72
REMARK   35  A    between atoms: _75  and  _77
REMARK   36  A    between atoms: _77  and  _78
REMARK   37  A    between atoms: _77  and  _80
REMARK   38  A    between atoms: _80  and  _81
REMARK   39  A    between atoms: _86  and  _87
REMARK   40  A    between atoms: _89  and  _91
REMARK   41  A    between atoms: _91  and  _92
REMARK   42  A    between atoms: _91  and  _94
REMARK   43  A    between atoms: _94  and  _95
REMARK   44  A    between atoms: _100  and  _102
REMARK   45  A    between atoms: _102  and  _103
REMARK   46  A    between atoms: _102  and  _105
REMARK   47  A    between atoms: _105  and  _106
REMARK   48  A    between atoms: _111  and  _112
REMARK   49  A    between atoms: _114  and  _116
REMARK   50  A    between atoms: _116  and  _117
REMARK   51  A    between atoms: _119  and  _121
REMARK   52  A    between atoms: _121  and  _122
REMARK   53  A    between atoms: _121  and  _124
REMARK   54  A    between atoms: _124  and  _125
REMARK   55  A    between atoms: _130  and  _131
REMARK   56  A    between atoms: _133  and  _135
REMARK   57  A    between atoms: _135  and  _136
REMARK   58  A    between atoms: _135  and  _138
REMARK   59  A    between atoms: _138  and  _139
REMARK   60  A    between atoms: _139  and  _140
REMARK   61  A    between atoms: _140  and  _141
REMARK   62  A    between atoms: _150  and  _152
REMARK   63  A    between atoms: _152  and  _153
REMARK   64  A    between atoms: _152  and  _155
REMARK   65  A    between atoms: _155  and  _156
REMARK   66  A    between atoms: _156  and  _157
REMARK   67  A    between atoms: _157  and  _158
REMARK   68  A    between atoms: _158  and  _159
REMARK   69  A    between atoms: _163  and  _165
REMARK   70  A    between atoms: _165  and  _166
REMARK   71  A    between atoms: _169  and  _171
REMARK   72  A    between atoms: _171  and  _172
REMARK   73  A    between atoms: _171  and  _174
REMARK   74  A    between atoms: _177  and  _179
REMARK   75  A    between atoms: _179  and  _180
REMARK   76  A    between atoms: _179  and  _182
REMARK   77  A    between atoms: _182  and  _183
REMARK   78  A    between atoms: _188  and  _190
REMARK   79  A    between atoms: _190  and  _191
REMARK   80  A    between atoms: _190  and  _193
REMARK   81  A    between atoms: _196  and  _198
REMARK   82  A    between atoms: _198  and  _199
REMARK   83  A    between atoms: _198  and  _201
REMARK   84  A    between atoms: _201  and  _202
REMARK   85  A    between atoms: _205  and  _206
REMARK   86  A    between atoms: _211  and  _213
REMARK   87  A    between atoms: _213  and  _214
REMARK   88  A    between atoms: _216  and  _218
REMARK   89  A    between atoms: _218  and  _219
REMARK   90  A    between atoms: _222  and  _224
REMARK   91  A    between atoms: _224  and  _225
REMARK   92  A    between atoms: _224  and  _227
REMARK   93  A    between atoms: _227  and  _228
REMARK   94  A    between atoms: _231  and  _233
REMARK   95  A    between atoms: _233  and  _234
REMARK   96  A    between atoms: _237  and  _239
REMARK   97  A    between atoms: _239  and  _240
REMARK   98  A    between atoms: _239  and  _242
REMARK   99  A    between atoms: _242  and  _243
REMARK  100  A    between atoms: _248  and  _249
REMARK  101  A    between atoms: _251  and  _253
REMARK  102  A    between atoms: _253  and  _254
REMARK  103  A    between atoms: _256  and  _258
REMARK  104  A    between atoms: _258  and  _259
REMARK  105  A    between atoms: _262  and  _264
REMARK  106  A    between atoms: _264  and  _265
REMARK  107  A    between atoms: _264  and  _267
REMARK  108  A    between atoms: _267  and  _268
REMARK  109  A    between atoms: _271  and  _273
REMARK  110  A    between atoms: _273  and  _274
REMARK  111  A    between atoms: _276  and  _278
REMARK  112  A    between atoms: _278  and  _279
REMARK  113  A    between atoms: _281  and  _283
REMARK  114  A    between atoms: _283  and  _284
REMARK  115  A    between atoms: _283  and  _286
REMARK  116  A    between atoms: _286  and  _287
REMARK  117  A    between atoms: _293  and  _295
REMARK  118  A    between atoms: _295  and  _296
REMARK  119  A    between atoms: _295  and  _298
REMARK  120  A    between atoms: _298  and  _299
REMARK                            x       y       z     vdW  Elec       q    Type
REMARK                         _______ _______ _______ _____ _____    ______ ____
ROOT
ATOM      1  O   HOH     1      15.909   0.423   5.456  0.00  0.00    +0.000 OA
ENDROOT
TORSDOF 0
REMARK  Name = ../refined-set-2016/3gtc/3gtc_pocket.pdb
REMARK  120 active torsions:
REMARK  status: ('A' for Active; 'I' for Inactive)
REMARK    1  A    between atoms: _1  and  _3
REMARK    2  A    between atoms: _3  and  _4
REMARK    3  A    between atoms: _3  and  _6
REMARK    4  A    between atoms: _6  and  _7
REMARK    5  A    between atoms: _7  and  _8
REMARK    6  A    between atoms: _11  and  _13
REMARK    7  A    between atoms: _13  and  _14
REMARK    8  A    between atoms: _16  and  _18
REMARK    9  A    between atoms: _18  and  _19
REMARK   10  A    between atoms: _18  and  _21
REMARK   11  A    between atoms: _21  and  _22
REMARK   12  A    between atoms: _24  and  _26
REMARK   13  A    between atoms: _26  and  _27
REMARK   14  A    between atoms: _26  and  _29
REMARK   15  A    between atoms: _29  and  _30
REMARK   16  A    between atoms: _30  and  _31
REMARK   17  A    between atoms: _31  and  _32
REMARK   18  A    between atoms: _32  and  _33
REMARK   19  A    between atoms: _37  and  _39
REMARK   20  A    between atoms: _39  and  _40
REMARK   21  A    between atoms: _39  and  _42
REMARK   22  A    between atoms: _42  and  _43
REMARK   23  A    between atoms: _46  and  _48
REMARK   24  A    between atoms: _48  and  _49
REMARK   25  A    between atoms: _48  and  _51
REMARK   26  A    between atoms: _51  and  _52
REMARK   27  A    between atoms: _52  and  _53
REMARK   28  A    between atoms: _58  and  _60
REMARK   29  A    between atoms: _60  and  _61
REMARK   30  A    between atoms: _60  and  _63
REMARK   31  A    between atoms: _66  and  _68
REMARK   32  A    between atoms: _68  and  _69
REMARK   33  A    between atoms: _68  and  _71
REMARK   34  A    between atoms: _71  and  _72
REMARK   35  A    between atoms: _75  and  _77
REMARK   36  A    between atoms: _77  and  _78
REMARK   37  A    between atoms: _77  and  _80
REMARK   38  A    between atoms: _80  and  _81
REMARK   39  A    between atoms: _86  and  _87
REMARK   40  A    between atoms: _89  and  _91
REMARK   41  A    between atoms: _91  and  _92
REMARK   42  A    between atoms: _91  and  _94
REMARK   43  A    between atoms: _94  and  _95
REMARK   44  A    between atoms: _100  and  _102
REMARK   45  A    between atoms: _102  and  _103
REMARK   46  A    between atoms: _102  and  _105
REMARK   47  A    between atoms: _105  and  _106
REMARK   48  A    between atoms: _111  and  _112
REMARK   49  A    between atoms: _114  and  _116
REMARK   50  A    between atoms: _116  and  _117
REMARK   51  A    between atoms: _119  and  _121
REMARK   52  A    between atoms: _121  and  _122
REMARK   53  A    between atoms: _121  and  _124
REMARK   54  A    between atoms: _124  and  _125
REMARK   55  A    between atoms: _130  and  _131
REMARK   56  A    between atoms: _133  and  _135
REMARK   57  A    between atoms: _135  and  _136
REMARK   58  A    between atoms: _135  and  _138
REMARK   59  A    between atoms: _138  and  _139
REMARK   60  A    between atoms: _139  and  _140
REMARK   61  A    between atoms: _140  and  _141
REMARK   62  A    between atoms: _150  and  _152
REMARK   63  A    between atoms: _152  and  _153
REMARK   64  A    between atoms: _152  and  _155
REMARK   65  A    between atoms: _155  and  _156
REMARK   66  A    between atoms: _156  and  _157
REMARK   67  A    between atoms: _157  and  _158
REMARK   68  A    between atoms: _158  and  _159
REMARK   69  A    between atoms: _163  and  _165
REMARK   70  A    between atoms: _165  and  _166
REMARK   71  A    between atoms: _169  and  _171
REMARK   72  A    between atoms: _171  and  _172
REMARK   73  A    between atoms: _171  and  _174
REMARK   74  A    between atoms: _177  and  _179
REMARK   75  A    between atoms: _179  and  _180
REMARK   76  A    between atoms: _179  and  _182
REMARK   77  A    between atoms: _182  and  _183
REMARK   78  A    between atoms: _188  and  _190
REMARK   79  A    between atoms: _190  and  _191
REMARK   80  A    between atoms: _190  and  _193
REMARK   81  A    between atoms: _196  and  _198
REMARK   82  A    between atoms: _198  and  _199
REMARK   83  A    between atoms: _198  and  _201
REMARK   84  A    between atoms: _201  and  _202
REMARK   85  A    between atoms: _205  and  _206
REMARK   86  A    between atoms: _211  and  _213
REMARK   87  A    between atoms: _213  and  _214
REMARK   88  A    between atoms: _216  and  _218
REMARK   89  A    between atoms: _218  and  _219
REMARK   90  A    between atoms: _222  and  _224
REMARK   91  A    between atoms: _224  and  _225
REMARK   92  A    between atoms: _224  and  _227
REMARK   93  A    between atoms: _227  and  _228
REMARK   94  A    between atoms: _231  and  _233
REMARK   95  A    between atoms: _233  and  _234
REMARK   96  A    between atoms: _237  and  _239
REMARK   97  A    between atoms: _239  and  _240
REMARK   98  A    between atoms: _239  and  _242
REMARK   99  A    between atoms: _242  and  _243
REMARK  100  A    between atoms: _248  and  _249
REMARK  101  A    between atoms: _251  and  _253
REMARK  102  A    between atoms: _253  and  _254
REMARK  103  A    between atoms: _256  and  _258
REMARK  104  A    between atoms: _258  and  _259
REMARK  105  A    between atoms: _262  and  _264
REMARK  106  A    between atoms: _264  and  _265
REMARK  107  A    between atoms: _264  and  _267
REMARK  108  A    between atoms: _267  and  _268
REMARK  109  A    between atoms: _271  and  _273
REMARK  110  A    between atoms: _273  and  _274
REMARK  111  A    between atoms: _276  and  _278
REMARK  112  A    between atoms: _278  and  _279
REMARK  113  A    between atoms: _281  and  _283
REMARK  114  A    between atoms: _283  and  _284
REMARK  115  A    between atoms: _283  and  _286
REMARK  116  A    between atoms: _286  and  _287
REMARK  117  A    between atoms: _293  and  _295
REMARK  118  A    between atoms: _295  and  _296
REMARK  119  A    between atoms: _295  and  _298
REMARK  120  A    between atoms: _298  and  _299
REMARK                            x       y       z     vdW  Elec       q    Type
REMARK                         _______ _______ _______ _____ _____    ______ ____
ROOT
ATOM      1  O   HOH     1      25.074   8.814  10.534  0.00  0.00    +0.000 OA
ENDROOT
TORSDOF 0
REMARK  Name = ../refined-set-2016/3gtc/3gtc_pocket.pdb
REMARK  120 active torsions:
REMARK  status: ('A' for Active; 'I' for Inactive)
REMARK    1  A    between atoms: _1  and  _3
REMARK    2  A    between atoms: _3  and  _4
REMARK    3  A    between atoms: _3  and  _6
REMARK    4  A    between atoms: _6  and  _7
REMARK    5  A    between atoms: _7  and  _8
REMARK    6  A    between atoms: _11  and  _13
REMARK    7  A    between atoms: _13  and  _14
REMARK    8  A    between atoms: _16  and  _18
REMARK    9  A    between atoms: _18  and  _19
REMARK   10  A    between atoms: _18  and  _21
REMARK   11  A    between atoms: _21  and  _22
REMARK   12  A    between atoms: _24  and  _26
REMARK   13  A    between atoms: _26  and  _27
REMARK   14  A    between atoms: _26  and  _29
REMARK   15  A    between atoms: _29  and  _30
REMARK   16  A    between atoms: _30  and  _31
REMARK   17  A    between atoms: _31  and  _32
REMARK   18  A    between atoms: _32  and  _33
REMARK   19  A    between atoms: _37  and  _39
REMARK   20  A    between atoms: _39  and  _40
REMARK   21  A    between atoms: _39  and  _42
REMARK   22  A    between atoms: _42  and  _43
REMARK   23  A    between atoms: _46  and  _48
REMARK   24  A    between atoms: _48  and  _49
REMARK   25  A    between atoms: _48  and  _51
REMARK   26  A    between atoms: _51  and  _52
REMARK   27  A    between atoms: _52  and  _53
REMARK   28  A    between atoms: _58  and  _60
REMARK   29  A    between atoms: _60  and  _61
REMARK   30  A    between atoms: _60  and  _63
REMARK   31  A    between atoms: _66  and  _68
REMARK   32  A    between atoms: _68  and  _69
REMARK   33  A    between atoms: _68  and  _71
REMARK   34  A    between atoms: _71  and  _72
REMARK   35  A    between atoms: _75  and  _77
REMARK   36  A    between atoms: _77  and  _78
REMARK   37  A    between atoms: _77  and  _80
REMARK   38  A    between atoms: _80  and  _81
REMARK   39  A    between atoms: _86  and  _87
REMARK   40  A    between atoms: _89  and  _91
REMARK   41  A    between atoms: _91  and  _92
REMARK   42  A    between atoms: _91  and  _94
REMARK   43  A    between atoms: _94  and  _95
REMARK   44  A    between atoms: _100  and  _102
REMARK   45  A    between atoms: _102  and  _103
REMARK   46  A    between atoms: _102  and  _105
REMARK   47  A    between atoms: _105  and  _106
REMARK   48  A    between atoms: _111  and  _112
REMARK   49  A    between atoms: _114  and  _116
REMARK   50  A    between atoms: _116  and  _117
REMARK   51  A    between atoms: _119  and  _121
REMARK   52  A    between atoms: _121  and  _122
REMARK   53  A    between atoms: _121  and  _124
REMARK   54  A    between atoms: _124  and  _125
REMARK   55  A    between atoms: _130  and  _131
REMARK   56  A    between atoms: _133  and  _135
REMARK   57  A    between atoms: _135  and  _136
REMARK   58  A    between atoms: _135  and  _138
REMARK   59  A    between atoms: _138  and  _139
REMARK   60  A    between atoms: _139  and  _140
REMARK   61  A    between atoms: _140  and  _141
REMARK   62  A    between atoms: _150  and  _152
REMARK   63  A    between atoms: _152  and  _153
REMARK   64  A    between atoms: _152  and  _155
REMARK   65  A    between atoms: _155  and  _156
REMARK   66  A    between atoms: _156  and  _157
REMARK   67  A    between atoms: _157  and  _158
REMARK   68  A    between atoms: _158  and  _159
REMARK   69  A    between atoms: _163  and  _165
REMARK   70  A    between atoms: _165  and  _166
REMARK   71  A    between atoms: _169  and  _171
REMARK   72  A    between atoms: _171  and  _172
REMARK   73  A    between atoms: _171  and  _174
REMARK   74  A    between atoms: _177  and  _179
REMARK   75  A    between atoms: _179  and  _180
REMARK   76  A    between atoms: _179  and  _182
REMARK   77  A    between atoms: _182  and  _183
REMARK   78  A    between atoms: _188  and  _190
REMARK   79  A    between atoms: _190  and  _191
REMARK   80  A    between atoms: _190  and  _193
REMARK   81  A    between atoms: _196  and  _198
REMARK   82  A    between atoms: _198  and  _199
REMARK   83  A    between atoms: _198  and  _201
REMARK   84  A    between atoms: _201  and  _202
REMARK   85  A    between atoms: _205  and  _206
REMARK   86  A    between atoms: _211  and  _213
REMARK   87  A    between atoms: _213  and  _214
REMARK   88  A    between atoms: _216  and  _218
REMARK   89  A    between atoms: _218  and  _219
REMARK   90  A    between atoms: _222  and  _224
REMARK   91  A    between atoms: _224  and  _225
REMARK   92  A    between atoms: _224  and  _227
REMARK   93  A    between atoms: _227  and  _228
REMARK   94  A    between atoms: _231  and  _233
REMARK   95  A    between atoms: _233  and  _234
REMARK   96  A    between atoms: _237  and  _239
REMARK   97  A    between atoms: _239  and  _240
REMARK   98  A    between atoms: _239  and  _242
REMARK   99  A    between atoms: _242  and  _243
REMARK  100  A    between atoms: _248  and  _249
REMARK  101  A    between atoms: _251  and  _253
REMARK  102  A    between atoms: _253  and  _254
REMARK  103  A    between atoms: _256  and  _258
REMARK  104  A    between atoms: _258  and  _259
REMARK  105  A    between atoms: _262  and  _264
REMARK  106  A    between atoms: _264  and  _265
REMARK  107  A    between atoms: _264  and  _267
REMARK  108  A    between atoms: _267  and  _268
REMARK  109  A    between atoms: _271  and  _273
REMARK  110  A    between atoms: _273  and  _274
REMARK  111  A    between atoms: _276  and  _278
REMARK  112  A    between atoms: _278  and  _279
REMARK  113  A    between atoms: _281  and  _283
REMARK  114  A    between atoms: _283  and  _284
REMARK  115  A    between atoms: _283  and  _286
REMARK  116  A    between atoms: _286  and  _287
REMARK  117  A    between atoms: _293  and  _295
REMARK  118  A    between atoms: _295  and  _296
REMARK  119  A    between atoms: _295  and  _298
REMARK  120  A    between atoms: _298  and  _299
REMARK                            x       y       z     vdW  Elec       q    Type
REMARK                         _______ _______ _______ _____ _____    ______ ____
ROOT
ATOM      1  O   HOH     1      24.156  -0.192   5.986  0.00  0.00    +0.000 OA
ENDROOT
TORSDOF 0
REMARK  Name = ../refined-set-2016/3gtc/3gtc_pocket.pdb
REMARK  120 active torsions:
REMARK  status: ('A' for Active; 'I' for Inactive)
REMARK    1  A    between atoms: _1  and  _3
REMARK    2  A    between atoms: _3  and  _4
REMARK    3  A    between atoms: _3  and  _6
REMARK    4  A    between atoms: _6  and  _7
REMARK    5  A    between atoms: _7  and  _8
REMARK    6  A    between atoms: _11  and  _13
REMARK    7  A    between atoms: _13  and  _14
REMARK    8  A    between atoms: _16  and  _18
REMARK    9  A    between atoms: _18  and  _19
REMARK   10  A    between atoms: _18  and  _21
REMARK   11  A    between atoms: _21  and  _22
REMARK   12  A    between atoms: _24  and  _26
REMARK   13  A    between atoms: _26  and  _27
REMARK   14  A    between atoms: _26  and  _29
REMARK   15  A    between atoms: _29  and  _30
REMARK   16  A    between atoms: _30  and  _31
REMARK   17  A    between atoms: _31  and  _32
REMARK   18  A    between atoms: _32  and  _33
REMARK   19  A    between atoms: _37  and  _39
REMARK   20  A    between atoms: _39  and  _40
REMARK   21  A    between atoms: _39  and  _42
REMARK   22  A    between atoms: _42  and  _43
REMARK   23  A    between atoms: _46  and  _48
REMARK   24  A    between atoms: _48  and  _49
REMARK   25  A    between atoms: _48  and  _51
REMARK   26  A    between atoms: _51  and  _52
REMARK   27  A    between atoms: _52  and  _53
REMARK   28  A    between atoms: _58  and  _60
REMARK   29  A    between atoms: _60  and  _61
REMARK   30  A    between atoms: _60  and  _63
REMARK   31  A    between atoms: _66  and  _68
REMARK   32  A    between atoms: _68  and  _69
REMARK   33  A    between atoms: _68  and  _71
REMARK   34  A    between atoms: _71  and  _72
REMARK   35  A    between atoms: _75  and  _77
REMARK   36  A    between atoms: _77  and  _78
REMARK   37  A    between atoms: _77  and  _80
REMARK   38  A    between atoms: _80  and  _81
REMARK   39  A    between atoms: _86  and  _87
REMARK   40  A    between atoms: _89  and  _91
REMARK   41  A    between atoms: _91  and  _92
REMARK   42  A    between atoms: _91  and  _94
REMARK   43  A    between atoms: _94  and  _95
REMARK   44  A    between atoms: _100  and  _102
REMARK   45  A    between atoms: _102  and  _103
REMARK   46  A    between atoms: _102  and  _105
REMARK   47  A    between atoms: _105  and  _106
REMARK   48  A    between atoms: _111  and  _112
REMARK   49  A    between atoms: _114  and  _116
REMARK   50  A    between atoms: _116  and  _117
REMARK   51  A    between atoms: _119  and  _121
REMARK   52  A    between atoms: _121  and  _122
REMARK   53  A    between atoms: _121  and  _124
REMARK   54  A    between atoms: _124  and  _125
REMARK   55  A    between atoms: _130  and  _131
REMARK   56  A    between atoms: _133  and  _135
REMARK   57  A    between atoms: _135  and  _136
REMARK   58  A    between atoms: _135  and  _138
REMARK   59  A    between atoms: _138  and  _139
REMARK   60  A    between atoms: _139  and  _140
REMARK   61  A    between atoms: _140  and  _141
REMARK   62  A    between atoms: _150  and  _152
REMARK   63  A    between atoms: _152  and  _153
REMARK   64  A    between atoms: _152  and  _155
REMARK   65  A    between atoms: _155  and  _156
REMARK   66  A    between atoms: _156  and  _157
REMARK   67  A    between atoms: _157  and  _158
REMARK   68  A    between atoms: _158  and  _159
REMARK   69  A    between atoms: _163  and  _165
REMARK   70  A    between atoms: _165  and  _166
REMARK   71  A    between atoms: _169  and  _171
REMARK   72  A    between atoms: _171  and  _172
REMARK   73  A    between atoms: _171  and  _174
REMARK   74  A    between atoms: _177  and  _179
REMARK   75  A    between atoms: _179  and  _180
REMARK   76  A    between atoms: _179  and  _182
REMARK   77  A    between atoms: _182  and  _183
REMARK   78  A    between atoms: _188  and  _190
REMARK   79  A    between atoms: _190  and  _191
REMARK   80  A    between atoms: _190  and  _193
REMARK   81  A    between atoms: _196  and  _198
REMARK   82  A    between atoms: _198  and  _199
REMARK   83  A    between atoms: _198  and  _201
REMARK   84  A    between atoms: _201  and  _202
REMARK   85  A    between atoms: _205  and  _206
REMARK   86  A    between atoms: _211  and  _213
REMARK   87  A    between atoms: _213  and  _214
REMARK   88  A    between atoms: _216  and  _218
REMARK   89  A    between atoms: _218  and  _219
REMARK   90  A    between atoms: _222  and  _224
REMARK   91  A    between atoms: _224  and  _225
REMARK   92  A    between atoms: _224  and  _227
REMARK   93  A    between atoms: _227  and  _228
REMARK   94  A    between atoms: _231  and  _233
REMARK   95  A    between atoms: _233  and  _234
REMARK   96  A    between atoms: _237  and  _239
REMARK   97  A    between atoms: _239  and  _240
REMARK   98  A    between atoms: _239  and  _242
REMARK   99  A    between atoms: _242  and  _243
REMARK  100  A    between atoms: _248  and  _249
REMARK  101  A    between atoms: _251  and  _253
REMARK  102  A    between atoms: _253  and  _254
REMARK  103  A    between atoms: _256  and  _258
REMARK  104  A    between atoms: _258  and  _259
REMARK  105  A    between atoms: _262  and  _264
REMARK  106  A    between atoms: _264  and  _265
REMARK  107  A    between atoms: _264  and  _267
REMARK  108  A    between atoms: _267  and  _268
REMARK  109  A    between atoms: _271  and  _273
REMARK  110  A    between atoms: _273  and  _274
REMARK  111  A    between atoms: _276  and  _278
REMARK  112  A    between atoms: _278  and  _279
REMARK  113  A    between atoms: _281  and  _283
REMARK  114  A    between atoms: _283  and  _284
REMARK  115  A    between atoms: _283  and  _286
REMARK  116  A    between atoms: _286  and  _287
REMARK  117  A    between atoms: _293  and  _295
REMARK  118  A    between atoms: _295  and  _296
REMARK  119  A    between atoms: _295  and  _298
REMARK  120  A    between atoms: _298  and  _299
REMARK                            x       y       z     vdW  Elec       q    Type
REMARK                         _______ _______ _______ _____ _____    ______ ____
ROOT
ATOM      1  O   HOH     1      22.873   3.987   6.574  0.00  0.00    +0.000 OA
ENDROOT
TORSDOF 0
REMARK  Name = ../refined-set-2016/3gtc/3gtc_pocket.pdb
REMARK  120 active torsions:
REMARK  status: ('A' for Active; 'I' for Inactive)
REMARK    1  A    between atoms: _1  and  _3
REMARK    2  A    between atoms: _3  and  _4
REMARK    3  A    between atoms: _3  and  _6
REMARK    4  A    between atoms: _6  and  _7
REMARK    5  A    between atoms: _7  and  _8
REMARK    6  A    between atoms: _11  and  _13
REMARK    7  A    between atoms: _13  and  _14
REMARK    8  A    between atoms: _16  and  _18
REMARK    9  A    between atoms: _18  and  _19
REMARK   10  A    between atoms: _18  and  _21
REMARK   11  A    between atoms: _21  and  _22
REMARK   12  A    between atoms: _24  and  _26
REMARK   13  A    between atoms: _26  and  _27
REMARK   14  A    between atoms: _26  and  _29
REMARK   15  A    between atoms: _29  and  _30
REMARK   16  A    between atoms: _30  and  _31
REMARK   17  A    between atoms: _31  and  _32
REMARK   18  A    between atoms: _32  and  _33
REMARK   19  A    between atoms: _37  and  _39
REMARK   20  A    between atoms: _39  and  _40
REMARK   21  A    between atoms: _39  and  _42
REMARK   22  A    between atoms: _42  and  _43
REMARK   23  A    between atoms: _46  and  _48
REMARK   24  A    between atoms: _48  and  _49
REMARK   25  A    between atoms: _48  and  _51
REMARK   26  A    between atoms: _51  and  _52
REMARK   27  A    between atoms: _52  and  _53
REMARK   28  A    between atoms: _58  and  _60
REMARK   29  A    between atoms: _60  and  _61
REMARK   30  A    between atoms: _60  and  _63
REMARK   31  A    between atoms: _66  and  _68
REMARK   32  A    between atoms: _68  and  _69
REMARK   33  A    between atoms: _68  and  _71
REMARK   34  A    between atoms: _71  and  _72
REMARK   35  A    between atoms: _75  and  _77
REMARK   36  A    between atoms: _77  and  _78
REMARK   37  A    between atoms: _77  and  _80
REMARK   38  A    between atoms: _80  and  _81
REMARK   39  A    between atoms: _86  and  _87
REMARK   40  A    between atoms: _89  and  _91
REMARK   41  A    between atoms: _91  and  _92
REMARK   42  A    between atoms: _91  and  _94
REMARK   43  A    between atoms: _94  and  _95
REMARK   44  A    between atoms: _100  and  _102
REMARK   45  A    between atoms: _102  and  _103
REMARK   46  A    between atoms: _102  and  _105
REMARK   47  A    between atoms: _105  and  _106
REMARK   48  A    between atoms: _111  and  _112
REMARK   49  A    between atoms: _114  and  _116
REMARK   50  A    between atoms: _116  and  _117
REMARK   51  A    between atoms: _119  and  _121
REMARK   52  A    between atoms: _121  and  _122
REMARK   53  A    between atoms: _121  and  _124
REMARK   54  A    between atoms: _124  and  _125
REMARK   55  A    between atoms: _130  and  _131
REMARK   56  A    between atoms: _133  and  _135
REMARK   57  A    between atoms: _135  and  _136
REMARK   58  A    between atoms: _135  and  _138
REMARK   59  A    between atoms: _138  and  _139
REMARK   60  A    between atoms: _139  and  _140
REMARK   61  A    between atoms: _140  and  _141
REMARK   62  A    between atoms: _150  and  _152
REMARK   63  A    between atoms: _152  and  _153
REMARK   64  A    between atoms: _152  and  _155
REMARK   65  A    between atoms: _155  and  _156
REMARK   66  A    between atoms: _156  and  _157
REMARK   67  A    between atoms: _157  and  _158
REMARK   68  A    between atoms: _158  and  _159
REMARK   69  A    between atoms: _163  and  _165
REMARK   70  A    between atoms: _165  and  _166
REMARK   71  A    between atoms: _169  and  _171
REMARK   72  A    between atoms: _171  and  _172
REMARK   73  A    between atoms: _171  and  _174
REMARK   74  A    between atoms: _177  and  _179
REMARK   75  A    between atoms: _179  and  _180
REMARK   76  A    between atoms: _179  and  _182
REMARK   77  A    between atoms: _182  and  _183
REMARK   78  A    between atoms: _188  and  _190
REMARK   79  A    between atoms: _190  and  _191
REMARK   80  A    between atoms: _190  and  _193
REMARK   81  A    between atoms: _196  and  _198
REMARK   82  A    between atoms: _198  and  _199
REMARK   83  A    between atoms: _198  and  _201
REMARK   84  A    between atoms: _201  and  _202
REMARK   85  A    between atoms: _205  and  _206
REMARK   86  A    between atoms: _211  and  _213
REMARK   87  A    between atoms: _213  and  _214
REMARK   88  A    between atoms: _216  and  _218
REMARK   89  A    between atoms: _218  and  _219
REMARK   90  A    between atoms: _222  and  _224
REMARK   91  A    between atoms: _224  and  _225
REMARK   92  A    between atoms: _224  and  _227
REMARK   93  A    between atoms: _227  and  _228
REMARK   94  A    between atoms: _231  and  _233
REMARK   95  A    between atoms: _233  and  _234
REMARK   96  A    between atoms: _237  and  _239
REMARK   97  A    between atoms: _239  and  _240
REMARK   98  A    between atoms: _239  and  _242
REMARK   99  A    between atoms: _242  and  _243
REMARK  100  A    between atoms: _248  and  _249
REMARK  101  A    between atoms: _251  and  _253
REMARK  102  A    between atoms: _253  and  _254
REMARK  103  A    between atoms: _256  and  _258
REMARK  104  A    between atoms: _258  and  _259
REMARK  105  A    between atoms: _262  and  _264
REMARK  106  A    between atoms: _264  and  _265
REMARK  107  A    between atoms: _264  and  _267
REMARK  108  A    between atoms: _267  and  _268
REMARK  109  A    between atoms: _271  and  _273
REMARK  110  A    between atoms: _273  and  _274
REMARK  111  A    between atoms: _276  and  _278
REMARK  112  A    between atoms: _278  and  _279
REMARK  113  A    between atoms: _281  and  _283
REMARK  114  A    between atoms: _283  and  _284
REMARK  115  A    between atoms: _283  and  _286
REMARK  116  A    between atoms: _286  and  _287
REMARK  117  A    between atoms: _293  and  _295
REMARK  118  A    between atoms: _295  and  _296
REMARK  119  A    between atoms: _295  and  _298
REMARK  120  A    between atoms: _298  and  _299
REMARK                            x       y       z     vdW  Elec       q    Type
REMARK                         _______ _______ _______ _____ _____    ______ ____
ROOT
ATOM      1  O   HOH     1      17.476   0.239   2.781  0.00  0.00    +0.000 OA
ENDROOT
TORSDOF 0
REMARK  Name = ../refined-set-2016/3gtc/3gtc_pocket.pdb
REMARK  120 active torsions:
REMARK  status: ('A' for Active; 'I' for Inactive)
REMARK    1  A    between atoms: _1  and  _3
REMARK    2  A    between atoms: _3  and  _4
REMARK    3  A    between atoms: _3  and  _6
REMARK    4  A    between atoms: _6  and  _7
REMARK    5  A    between atoms: _7  and  _8
REMARK    6  A    between atoms: _11  and  _13
REMARK    7  A    between atoms: _13  and  _14
REMARK    8  A    between atoms: _16  and  _18
REMARK    9  A    between atoms: _18  and  _19
REMARK   10  A    between atoms: _18  and  _21
REMARK   11  A    between atoms: _21  and  _22
REMARK   12  A    between atoms: _24  and  _26
REMARK   13  A    between atoms: _26  and  _27
REMARK   14  A    between atoms: _26  and  _29
REMARK   15  A    between atoms: _29  and  _30
REMARK   16  A    between atoms: _30  and  _31
REMARK   17  A    between atoms: _31  and  _32
REMARK   18  A    between atoms: _32  and  _33
REMARK   19  A    between atoms: _37  and  _39
REMARK   20  A    between atoms: _39  and  _40
REMARK   21  A    between atoms: _39  and  _42
REMARK   22  A    between atoms: _42  and  _43
REMARK   23  A    between atoms: _46  and  _48
REMARK   24  A    between atoms: _48  and  _49
REMARK   25  A    between atoms: _48  and  _51
REMARK   26  A    between atoms: _51  and  _52
REMARK   27  A    between atoms: _52  and  _53
REMARK   28  A    between atoms: _58  and  _60
REMARK   29  A    between atoms: _60  and  _61
REMARK   30  A    between atoms: _60  and  _63
REMARK   31  A    between atoms: _66  and  _68
REMARK   32  A    between atoms: _68  and  _69
REMARK   33  A    between atoms: _68  and  _71
REMARK   34  A    between atoms: _71  and  _72
REMARK   35  A    between atoms: _75  and  _77
REMARK   36  A    between atoms: _77  and  _78
REMARK   37  A    between atoms: _77  and  _80
REMARK   38  A    between atoms: _80  and  _81
REMARK   39  A    between atoms: _86  and  _87
REMARK   40  A    between atoms: _89  and  _91
REMARK   41  A    between atoms: _91  and  _92
REMARK   42  A    between atoms: _91  and  _94
REMARK   43  A    between atoms: _94  and  _95
REMARK   44  A    between atoms: _100  and  _102
REMARK   45  A    between atoms: _102  and  _103
REMARK   46  A    between atoms: _102  and  _105
REMARK   47  A    between atoms: _105  and  _106
REMARK   48  A    between atoms: _111  and  _112
REMARK   49  A    between atoms: _114  and  _116
REMARK   50  A    between atoms: _116  and  _117
REMARK   51  A    between atoms: _119  and  _121
REMARK   52  A    between atoms: _121  and  _122
REMARK   53  A    between atoms: _121  and  _124
REMARK   54  A    between atoms: _124  and  _125
REMARK   55  A    between atoms: _130  and  _131
REMARK   56  A    between atoms: _133  and  _135
REMARK   57  A    between atoms: _135  and  _136
REMARK   58  A    between atoms: _135  and  _138
REMARK   59  A    between atoms: _138  and  _139
REMARK   60  A    between atoms: _139  and  _140
REMARK   61  A    between atoms: _140  and  _141
REMARK   62  A    between atoms: _150  and  _152
REMARK   63  A    between atoms: _152  and  _153
REMARK   64  A    between atoms: _152  and  _155
REMARK   65  A    between atoms: _155  and  _156
REMARK   66  A    between atoms: _156  and  _157
REMARK   67  A    between atoms: _157  and  _158
REMARK   68  A    between atoms: _158  and  _159
REMARK   69  A    between atoms: _163  and  _165
REMARK   70  A    between atoms: _165  and  _166
REMARK   71  A    between atoms: _169  and  _171
REMARK   72  A    between atoms: _171  and  _172
REMARK   73  A    between atoms: _171  and  _174
REMARK   74  A    between atoms: _177  and  _179
REMARK   75  A    between atoms: _179  and  _180
REMARK   76  A    between atoms: _179  and  _182
REMARK   77  A    between atoms: _182  and  _183
REMARK   78  A    between atoms: _188  and  _190
REMARK   79  A    between atoms: _190  and  _191
REMARK   80  A    between atoms: _190  and  _193
REMARK   81  A    between atoms: _196  and  _198
REMARK   82  A    between atoms: _198  and  _199
REMARK   83  A    between atoms: _198  and  _201
REMARK   84  A    between atoms: _201  and  _202
REMARK   85  A    between atoms: _205  and  _206
REMARK   86  A    between atoms: _211  and  _213
REMARK   87  A    between atoms: _213  and  _214
REMARK   88  A    between atoms: _216  and  _218
REMARK   89  A    between atoms: _218  and  _219
REMARK   90  A    between atoms: _222  and  _224
REMARK   91  A    between atoms: _224  and  _225
REMARK   92  A    between atoms: _224  and  _227
REMARK   93  A    between atoms: _227  and  _228
REMARK   94  A    between atoms: _231  and  _233
REMARK   95  A    between atoms: _233  and  _234
REMARK   96  A    between atoms: _237  and  _239
REMARK   97  A    between atoms: _239  and  _240
REMARK   98  A    between atoms: _239  and  _242
REMARK   99  A    between atoms: _242  and  _243
REMARK  100  A    between atoms: _248  and  _249
REMARK  101  A    between atoms: _251  and  _253
REMARK  102  A    between atoms: _253  and  _254
REMARK  103  A    between atoms: _256  and  _258
REMARK  104  A    between atoms: _258  and  _259
REMARK  105  A    between atoms: _262  and  _264
REMARK  106  A    between atoms: _264  and  _265
REMARK  107  A    between atoms: _264  and  _267
REMARK  108  A    between atoms: _267  and  _268
REMARK  109  A    between atoms: _271  and  _273
REMARK  110  A    between atoms: _273  and  _274
REMARK  111  A    between atoms: _276  and  _278
REMARK  112  A    between atoms: _278  and  _279
REMARK  113  A    between atoms: _281  and  _283
REMARK  114  A    between atoms: _283  and  _284
REMARK  115  A    between atoms: _283  and  _286
REMARK  116  A    between atoms: _286  and  _287
REMARK  117  A    between atoms: _293  and  _295
REMARK  118  A    between atoms: _295  and  _296
REMARK  119  A    between atoms: _295  and  _298
REMARK  120  A    between atoms: _298  and  _299
REMARK                            x       y       z     vdW  Elec       q    Type
REMARK                         _______ _______ _______ _____ _____    ______ ____
ROOT
ATOM      1  O   HOH     1      14.123   1.695  17.292  0.00  0.00    +0.000 OA
ENDROOT
TORSDOF 0
REMARK  Name = ../refined-set-2016/3gtc/3gtc_pocket.pdb
REMARK  120 active torsions:
REMARK  status: ('A' for Active; 'I' for Inactive)
REMARK    1  A    between atoms: _1  and  _3
REMARK    2  A    between atoms: _3  and  _4
REMARK    3  A    between atoms: _3  and  _6
REMARK    4  A    between atoms: _6  and  _7
REMARK    5  A    between atoms: _7  and  _8
REMARK    6  A    between atoms: _11  and  _13
REMARK    7  A    between atoms: _13  and  _14
REMARK    8  A    between atoms: _16  and  _18
REMARK    9  A    between atoms: _18  and  _19
REMARK   10  A    between atoms: _18  and  _21
REMARK   11  A    between atoms: _21  and  _22
REMARK   12  A    between atoms: _24  and  _26
REMARK   13  A    between atoms: _26  and  _27
REMARK   14  A    between atoms: _26  and  _29
REMARK   15  A    between atoms: _29  and  _30
REMARK   16  A    between atoms: _30  and  _31
REMARK   17  A    between atoms: _31  and  _32
REMARK   18  A    between atoms: _32  and  _33
REMARK   19  A    between atoms: _37  and  _39
REMARK   20  A    between atoms: _39  and  _40
REMARK   21  A    between atoms: _39  and  _42
REMARK   22  A    between atoms: _42  and  _43
REMARK   23  A    between atoms: _46  and  _48
REMARK   24  A    between atoms: _48  and  _49
REMARK   25  A    between atoms: _48  and  _51
REMARK   26  A    between atoms: _51  and  _52
REMARK   27  A    between atoms: _52  and  _53
REMARK   28  A    between atoms: _58  and  _60
REMARK   29  A    between atoms: _60  and  _61
REMARK   30  A    between atoms: _60  and  _63
REMARK   31  A    between atoms: _66  and  _68
REMARK   32  A    between atoms: _68  and  _69
REMARK   33  A    between atoms: _68  and  _71
REMARK   34  A    between atoms: _71  and  _72
REMARK   35  A    between atoms: _75  and  _77
REMARK   36  A    between atoms: _77  and  _78
REMARK   37  A    between atoms: _77  and  _80
REMARK   38  A    between atoms: _80  and  _81
REMARK   39  A    between atoms: _86  and  _87
REMARK   40  A    between atoms: _89  and  _91
REMARK   41  A    between atoms: _91  and  _92
REMARK   42  A    between atoms: _91  and  _94
REMARK   43  A    between atoms: _94  and  _95
REMARK   44  A    between atoms: _100  and  _102
REMARK   45  A    between atoms: _102  and  _103
REMARK   46  A    between atoms: _102  and  _105
REMARK   47  A    between atoms: _105  and  _106
REMARK   48  A    between atoms: _111  and  _112
REMARK   49  A    between atoms: _114  and  _116
REMARK   50  A    between atoms: _116  and  _117
REMARK   51  A    between atoms: _119  and  _121
REMARK   52  A    between atoms: _121  and  _122
REMARK   53  A    between atoms: _121  and  _124
REMARK   54  A    between atoms: _124  and  _125
REMARK   55  A    between atoms: _130  and  _131
REMARK   56  A    between atoms: _133  and  _135
REMARK   57  A    between atoms: _135  and  _136
REMARK   58  A    between atoms: _135  and  _138
REMARK   59  A    between atoms: _138  and  _139
REMARK   60  A    between atoms: _139  and  _140
REMARK   61  A    between atoms: _140  and  _141
REMARK   62  A    between atoms: _150  and  _152
REMARK   63  A    between atoms: _152  and  _153
REMARK   64  A    between atoms: _152  and  _155
REMARK   65  A    between atoms: _155  and  _156
REMARK   66  A    between atoms: _156  and  _157
REMARK   67  A    between atoms: _157  and  _158
REMARK   68  A    between atoms: _158  and  _159
REMARK   69  A    between atoms: _163  and  _165
REMARK   70  A    between atoms: _165  and  _166
REMARK   71  A    between atoms: _169  and  _171
REMARK   72  A    between atoms: _171  and  _172
REMARK   73  A    between atoms: _171  and  _174
REMARK   74  A    between atoms: _177  and  _179
REMARK   75  A    between atoms: _179  and  _180
REMARK   76  A    between atoms: _179  and  _182
REMARK   77  A    between atoms: _182  and  _183
REMARK   78  A    between atoms: _188  and  _190
REMARK   79  A    between atoms: _190  and  _191
REMARK   80  A    between atoms: _190  and  _193
REMARK   81  A    between atoms: _196  and  _198
REMARK   82  A    between atoms: _198  and  _199
REMARK   83  A    between atoms: _198  and  _201
REMARK   84  A    between atoms: _201  and  _202
REMARK   85  A    between atoms: _205  and  _206
REMARK   86  A    between atoms: _211  and  _213
REMARK   87  A    between atoms: _213  and  _214
REMARK   88  A    between atoms: _216  and  _218
REMARK   89  A    between atoms: _218  and  _219
REMARK   90  A    between atoms: _222  and  _224
REMARK   91  A    between atoms: _224  and  _225
REMARK   92  A    between atoms: _224  and  _227
REMARK   93  A    between atoms: _227  and  _228
REMARK   94  A    between atoms: _231  and  _233
REMARK   95  A    between atoms: _233  and  _234
REMARK   96  A    between atoms: _237  and  _239
REMARK   97  A    between atoms: _239  and  _240
REMARK   98  A    between atoms: _239  and  _242
REMARK   99  A    between atoms: _242  and  _243
REMARK  100  A    between atoms: _248  and  _249
REMARK  101  A    between atoms: _251  and  _253
REMARK  102  A    between atoms: _253  and  _254
REMARK  103  A    between atoms: _256  and  _258
REMARK  104  A    between atoms: _258  and  _259
REMARK  105  A    between atoms: _262  and  _264
REMARK  106  A    between atoms: _264  and  _265
REMARK  107  A    between atoms: _264  and  _267
REMARK  108  A    between atoms: _267  and  _268
REMARK  109  A    between atoms: _271  and  _273
REMARK  110  A    between atoms: _273  and  _274
REMARK  111  A    between atoms: _276  and  _278
REMARK  112  A    between atoms: _278  and  _279
REMARK  113  A    between atoms: _281  and  _283
REMARK  114  A    between atoms: _283  and  _284
REMARK  115  A    between atoms: _283  and  _286
REMARK  116  A    between atoms: _286  and  _287
REMARK  117  A    between atoms: _293  and  _295
REMARK  118  A    between atoms: _295  and  _296
REMARK  119  A    between atoms: _295  and  _298
REMARK  120  A    between atoms: _298  and  _299
REMARK                            x       y       z     vdW  Elec       q    Type
REMARK                         _______ _______ _______ _____ _____    ______ ____
ROOT
ATOM      1  O   HOH     1      20.469   3.765   1.427  0.00  0.00    +0.000 OA
ENDROOT
TORSDOF 0
REMARK  Name = ../refined-set-2016/3gtc/3gtc_pocket.pdb
REMARK  120 active torsions:
REMARK  status: ('A' for Active; 'I' for Inactive)
REMARK    1  A    between atoms: _1  and  _3
REMARK    2  A    between atoms: _3  and  _4
REMARK    3  A    between atoms: _3  and  _6
REMARK    4  A    between atoms: _6  and  _7
REMARK    5  A    between atoms: _7  and  _8
REMARK    6  A    between atoms: _11  and  _13
REMARK    7  A    between atoms: _13  and  _14
REMARK    8  A    between atoms: _16  and  _18
REMARK    9  A    between atoms: _18  and  _19
REMARK   10  A    between atoms: _18  and  _21
REMARK   11  A    between atoms: _21  and  _22
REMARK   12  A    between atoms: _24  and  _26
REMARK   13  A    between atoms: _26  and  _27
REMARK   14  A    between atoms: _26  and  _29
REMARK   15  A    between atoms: _29  and  _30
REMARK   16  A    between atoms: _30  and  _31
REMARK   17  A    between atoms: _31  and  _32
REMARK   18  A    between atoms: _32  and  _33
REMARK   19  A    between atoms: _37  and  _39
REMARK   20  A    between atoms: _39  and  _40
REMARK   21  A    between atoms: _39  and  _42
REMARK   22  A    between atoms: _42  and  _43
REMARK   23  A    between atoms: _46  and  _48
REMARK   24  A    between atoms: _48  and  _49
REMARK   25  A    between atoms: _48  and  _51
REMARK   26  A    between atoms: _51  and  _52
REMARK   27  A    between atoms: _52  and  _53
REMARK   28  A    between atoms: _58  and  _60
REMARK   29  A    between atoms: _60  and  _61
REMARK   30  A    between atoms: _60  and  _63
REMARK   31  A    between atoms: _66  and  _68
REMARK   32  A    between atoms: _68  and  _69
REMARK   33  A    between atoms: _68  and  _71
REMARK   34  A    between atoms: _71  and  _72
REMARK   35  A    between atoms: _75  and  _77
REMARK   36  A    between atoms: _77  and  _78
REMARK   37  A    between atoms: _77  and  _80
REMARK   38  A    between atoms: _80  and  _81
REMARK   39  A    between atoms: _86  and  _87
REMARK   40  A    between atoms: _89  and  _91
REMARK   41  A    between atoms: _91  and  _92
REMARK   42  A    between atoms: _91  and  _94
REMARK   43  A    between atoms: _94  and  _95
REMARK   44  A    between atoms: _100  and  _102
REMARK   45  A    between atoms: _102  and  _103
REMARK   46  A    between atoms: _102  and  _105
REMARK   47  A    between atoms: _105  and  _106
REMARK   48  A    between atoms: _111  and  _112
REMARK   49  A    between atoms: _114  and  _116
REMARK   50  A    between atoms: _116  and  _117
REMARK   51  A    between atoms: _119  and  _121
REMARK   52  A    between atoms: _121  and  _122
REMARK   53  A    between atoms: _121  and  _124
REMARK   54  A    between atoms: _124  and  _125
REMARK   55  A    between atoms: _130  and  _131
REMARK   56  A    between atoms: _133  and  _135
REMARK   57  A    between atoms: _135  and  _136
REMARK   58  A    between atoms: _135  and  _138
REMARK   59  A    between atoms: _138  and  _139
REMARK   60  A    between atoms: _139  and  _140
REMARK   61  A    between atoms: _140  and  _141
REMARK   62  A    between atoms: _150  and  _152
REMARK   63  A    between atoms: _152  and  _153
REMARK   64  A    between atoms: _152  and  _155
REMARK   65  A    between atoms: _155  and  _156
REMARK   66  A    between atoms: _156  and  _157
REMARK   67  A    between atoms: _157  and  _158
REMARK   68  A    between atoms: _158  and  _159
REMARK   69  A    between atoms: _163  and  _165
REMARK   70  A    between atoms: _165  and  _166
REMARK   71  A    between atoms: _169  and  _171
REMARK   72  A    between atoms: _171  and  _172
REMARK   73  A    between atoms: _171  and  _174
REMARK   74  A    between atoms: _177  and  _179
REMARK   75  A    between atoms: _179  and  _180
REMARK   76  A    between atoms: _179  and  _182
REMARK   77  A    between atoms: _182  and  _183
REMARK   78  A    between atoms: _188  and  _190
REMARK   79  A    between atoms: _190  and  _191
REMARK   80  A    between atoms: _190  and  _193
REMARK   81  A    between atoms: _196  and  _198
REMARK   82  A    between atoms: _198  and  _199
REMARK   83  A    between atoms: _198  and  _201
REMARK   84  A    between atoms: _201  and  _202
REMARK   85  A    between atoms: _205  and  _206
REMARK   86  A    between atoms: _211  and  _213
REMARK   87  A    between atoms: _213  and  _214
REMARK   88  A    between atoms: _216  and  _218
REMARK   89  A    between atoms: _218  and  _219
REMARK   90  A    between atoms: _222  and  _224
REMARK   91  A    between atoms: _224  and  _225
REMARK   92  A    between atoms: _224  and  _227
REMARK   93  A    between atoms: _227  and  _228
REMARK   94  A    between atoms: _231  and  _233
REMARK   95  A    between atoms: _233  and  _234
REMARK   96  A    between atoms: _237  and  _239
REMARK   97  A    between atoms: _239  and  _240
REMARK   98  A    between atoms: _239  and  _242
REMARK   99  A    between atoms: _242  and  _243
REMARK  100  A    between atoms: _248  and  _249
REMARK  101  A    between atoms: _251  and  _253
REMARK  102  A    between atoms: _253  and  _254
REMARK  103  A    between atoms: _256  and  _258
REMARK  104  A    between atoms: _258  and  _259
REMARK  105  A    between atoms: _262  and  _264
REMARK  106  A    between atoms: _264  and  _265
REMARK  107  A    between atoms: _264  and  _267
REMARK  108  A    between atoms: _267  and  _268
REMARK  109  A    between atoms: _271  and  _273
REMARK  110  A    between atoms: _273  and  _274
REMARK  111  A    between atoms: _276  and  _278
REMARK  112  A    between atoms: _278  and  _279
REMARK  113  A    between atoms: _281  and  _283
REMARK  114  A    between atoms: _283  and  _284
REMARK  115  A    between atoms: _283  and  _286
REMARK  116  A    between atoms: _286  and  _287
REMARK  117  A    between atoms: _293  and  _295
REMARK  118  A    between atoms: _295  and  _296
REMARK  119  A    between atoms: _295  and  _298
REMARK  120  A    between atoms: _298  and  _299
REMARK                            x       y       z     vdW  Elec       q    Type
REMARK                         _______ _______ _______ _____ _____    ______ ____
ROOT
ATOM      1  O   HOH     1      15.803   4.912  16.129  0.00  0.00    +0.000 OA
ENDROOT
TORSDOF 0
REMARK  Name = ../refined-set-2016/3gtc/3gtc_pocket.pdb
REMARK  120 active torsions:
REMARK  status: ('A' for Active; 'I' for Inactive)
REMARK    1  A    between atoms: _1  and  _3
REMARK    2  A    between atoms: _3  and  _4
REMARK    3  A    between atoms: _3  and  _6
REMARK    4  A    between atoms: _6  and  _7
REMARK    5  A    between atoms: _7  and  _8
REMARK    6  A    between atoms: _11  and  _13
REMARK    7  A    between atoms: _13  and  _14
REMARK    8  A    between atoms: _16  and  _18
REMARK    9  A    between atoms: _18  and  _19
REMARK   10  A    between atoms: _18  and  _21
REMARK   11  A    between atoms: _21  and  _22
REMARK   12  A    between atoms: _24  and  _26
REMARK   13  A    between atoms: _26  and  _27
REMARK   14  A    between atoms: _26  and  _29
REMARK   15  A    between atoms: _29  and  _30
REMARK   16  A    between atoms: _30  and  _31
REMARK   17  A    between atoms: _31  and  _32
REMARK   18  A    between atoms: _32  and  _33
REMARK   19  A    between atoms: _37  and  _39
REMARK   20  A    between atoms: _39  and  _40
REMARK   21  A    between atoms: _39  and  _42
REMARK   22  A    between atoms: _42  and  _43
REMARK   23  A    between atoms: _46  and  _48
REMARK   24  A    between atoms: _48  and  _49
REMARK   25  A    between atoms: _48  and  _51
REMARK   26  A    between atoms: _51  and  _52
REMARK   27  A    between atoms: _52  and  _53
REMARK   28  A    between atoms: _58  and  _60
REMARK   29  A    between atoms: _60  and  _61
REMARK   30  A    between atoms: _60  and  _63
REMARK   31  A    between atoms: _66  and  _68
REMARK   32  A    between atoms: _68  and  _69
REMARK   33  A    between atoms: _68  and  _71
REMARK   34  A    between atoms: _71  and  _72
REMARK   35  A    between atoms: _75  and  _77
REMARK   36  A    between atoms: _77  and  _78
REMARK   37  A    between atoms: _77  and  _80
REMARK   38  A    between atoms: _80  and  _81
REMARK   39  A    between atoms: _86  and  _87
REMARK   40  A    between atoms: _89  and  _91
REMARK   41  A    between atoms: _91  and  _92
REMARK   42  A    between atoms: _91  and  _94
REMARK   43  A    between atoms: _94  and  _95
REMARK   44  A    between atoms: _100  and  _102
REMARK   45  A    between atoms: _102  and  _103
REMARK   46  A    between atoms: _102  and  _105
REMARK   47  A    between atoms: _105  and  _106
REMARK   48  A    between atoms: _111  and  _112
REMARK   49  A    between atoms: _114  and  _116
REMARK   50  A    between atoms: _116  and  _117
REMARK   51  A    between atoms: _119  and  _121
REMARK   52  A    between atoms: _121  and  _122
REMARK   53  A    between atoms: _121  and  _124
REMARK   54  A    between atoms: _124  and  _125
REMARK   55  A    between atoms: _130  and  _131
REMARK   56  A    between atoms: _133  and  _135
REMARK   57  A    between atoms: _135  and  _136
REMARK   58  A    between atoms: _135  and  _138
REMARK   59  A    between atoms: _138  and  _139
REMARK   60  A    between atoms: _139  and  _140
REMARK   61  A    between atoms: _140  and  _141
REMARK   62  A    between atoms: _150  and  _152
REMARK   63  A    between atoms: _152  and  _153
REMARK   64  A    between atoms: _152  and  _155
REMARK   65  A    between atoms: _155  and  _156
REMARK   66  A    between atoms: _156  and  _157
REMARK   67  A    between atoms: _157  and  _158
REMARK   68  A    between atoms: _158  and  _159
REMARK   69  A    between atoms: _163  and  _165
REMARK   70  A    between atoms: _165  and  _166
REMARK   71  A    between atoms: _169  and  _171
REMARK   72  A    between atoms: _171  and  _172
REMARK   73  A    between atoms: _171  and  _174
REMARK   74  A    between atoms: _177  and  _179
REMARK   75  A    between atoms: _179  and  _180
REMARK   76  A    between atoms: _179  and  _182
REMARK   77  A    between atoms: _182  and  _183
REMARK   78  A    between atoms: _188  and  _190
REMARK   79  A    between atoms: _190  and  _191
REMARK   80  A    between atoms: _190  and  _193
REMARK   81  A    between atoms: _196  and  _198
REMARK   82  A    between atoms: _198  and  _199
REMARK   83  A    between atoms: _198  and  _201
REMARK   84  A    between atoms: _201  and  _202
REMARK   85  A    between atoms: _205  and  _206
REMARK   86  A    between atoms: _211  and  _213
REMARK   87  A    between atoms: _213  and  _214
REMARK   88  A    between atoms: _216  and  _218
REMARK   89  A    between atoms: _218  and  _219
REMARK   90  A    between atoms: _222  and  _224
REMARK   91  A    between atoms: _224  and  _225
REMARK   92  A    between atoms: _224  and  _227
REMARK   93  A    between atoms: _227  and  _228
REMARK   94  A    between atoms: _231  and  _233
REMARK   95  A    between atoms: _233  and  _234
REMARK   96  A    between atoms: _237  and  _239
REMARK   97  A    between atoms: _239  and  _240
REMARK   98  A    between atoms: _239  and  _242
REMARK   99  A    between atoms: _242  and  _243
REMARK  100  A    between atoms: _248  and  _249
REMARK  101  A    between atoms: _251  and  _253
REMARK  102  A    between atoms: _253  and  _254
REMARK  103  A    between atoms: _256  and  _258
REMARK  104  A    between atoms: _258  and  _259
REMARK  105  A    between atoms: _262  and  _264
REMARK  106  A    between atoms: _264  and  _265
REMARK  107  A    between atoms: _264  and  _267
REMARK  108  A    between atoms: _267  and  _268
REMARK  109  A    between atoms: _271  and  _273
REMARK  110  A    between atoms: _273  and  _274
REMARK  111  A    between atoms: _276  and  _278
REMARK  112  A    between atoms: _278  and  _279
REMARK  113  A    between atoms: _281  and  _283
REMARK  114  A    between atoms: _283  and  _284
REMARK  115  A    between atoms: _283  and  _286
REMARK  116  A    between atoms: _286  and  _287
REMARK  117  A    between atoms: _293  and  _295
REMARK  118  A    between atoms: _295  and  _296
REMARK  119  A    between atoms: _295  and  _298
REMARK  120  A    between atoms: _298  and  _299
REMARK                            x       y       z     vdW  Elec       q    Type
REMARK                         _______ _______ _______ _____ _____    ______ ____
ROOT
ATOM      1  O   HOH     1      22.420   6.456   4.305  0.00  0.00    +0.000 OA
ENDROOT
TORSDOF 0
REMARK  Name = ../refined-set-2016/3gtc/3gtc_pocket.pdb
REMARK  120 active torsions:
REMARK  status: ('A' for Active; 'I' for Inactive)
REMARK    1  A    between atoms: _1  and  _3
REMARK    2  A    between atoms: _3  and  _4
REMARK    3  A    between atoms: _3  and  _6
REMARK    4  A    between atoms: _6  and  _7
REMARK    5  A    between atoms: _7  and  _8
REMARK    6  A    between atoms: _11  and  _13
REMARK    7  A    between atoms: _13  and  _14
REMARK    8  A    between atoms: _16  and  _18
REMARK    9  A    between atoms: _18  and  _19
REMARK   10  A    between atoms: _18  and  _21
REMARK   11  A    between atoms: _21  and  _22
REMARK   12  A    between atoms: _24  and  _26
REMARK   13  A    between atoms: _26  and  _27
REMARK   14  A    between atoms: _26  and  _29
REMARK   15  A    between atoms: _29  and  _30
REMARK   16  A    between atoms: _30  and  _31
REMARK   17  A    between atoms: _31  and  _32
REMARK   18  A    between atoms: _32  and  _33
REMARK   19  A    between atoms: _37  and  _39
REMARK   20  A    between atoms: _39  and  _40
REMARK   21  A    between atoms: _39  and  _42
REMARK   22  A    between atoms: _42  and  _43
REMARK   23  A    between atoms: _46  and  _48
REMARK   24  A    between atoms: _48  and  _49
REMARK   25  A    between atoms: _48  and  _51
REMARK   26  A    between atoms: _51  and  _52
REMARK   27  A    between atoms: _52  and  _53
REMARK   28  A    between atoms: _58  and  _60
REMARK   29  A    between atoms: _60  and  _61
REMARK   30  A    between atoms: _60  and  _63
REMARK   31  A    between atoms: _66  and  _68
REMARK   32  A    between atoms: _68  and  _69
REMARK   33  A    between atoms: _68  and  _71
REMARK   34  A    between atoms: _71  and  _72
REMARK   35  A    between atoms: _75  and  _77
REMARK   36  A    between atoms: _77  and  _78
REMARK   37  A    between atoms: _77  and  _80
REMARK   38  A    between atoms: _80  and  _81
REMARK   39  A    between atoms: _86  and  _87
REMARK   40  A    between atoms: _89  and  _91
REMARK   41  A    between atoms: _91  and  _92
REMARK   42  A    between atoms: _91  and  _94
REMARK   43  A    between atoms: _94  and  _95
REMARK   44  A    between atoms: _100  and  _102
REMARK   45  A    between atoms: _102  and  _103
REMARK   46  A    between atoms: _102  and  _105
REMARK   47  A    between atoms: _105  and  _106
REMARK   48  A    between atoms: _111  and  _112
REMARK   49  A    between atoms: _114  and  _116
REMARK   50  A    between atoms: _116  and  _117
REMARK   51  A    between atoms: _119  and  _121
REMARK   52  A    between atoms: _121  and  _122
REMARK   53  A    between atoms: _121  and  _124
REMARK   54  A    between atoms: _124  and  _125
REMARK   55  A    between atoms: _130  and  _131
REMARK   56  A    between atoms: _133  and  _135
REMARK   57  A    between atoms: _135  and  _136
REMARK   58  A    between atoms: _135  and  _138
REMARK   59  A    between atoms: _138  and  _139
REMARK   60  A    between atoms: _139  and  _140
REMARK   61  A    between atoms: _140  and  _141
REMARK   62  A    between atoms: _150  and  _152
REMARK   63  A    between atoms: _152  and  _153
REMARK   64  A    between atoms: _152  and  _155
REMARK   65  A    between atoms: _155  and  _156
REMARK   66  A    between atoms: _156  and  _157
REMARK   67  A    between atoms: _157  and  _158
REMARK   68  A    between atoms: _158  and  _159
REMARK   69  A    between atoms: _163  and  _165
REMARK   70  A    between atoms: _165  and  _166
REMARK   71  A    between atoms: _169  and  _171
REMARK   72  A    between atoms: _171  and  _172
REMARK   73  A    between atoms: _171  and  _174
REMARK   74  A    between atoms: _177  and  _179
REMARK   75  A    between atoms: _179  and  _180
REMARK   76  A    between atoms: _179  and  _182
REMARK   77  A    between atoms: _182  and  _183
REMARK   78  A    between atoms: _188  and  _190
REMARK   79  A    between atoms: _190  and  _191
REMARK   80  A    between atoms: _190  and  _193
REMARK   81  A    between atoms: _196  and  _198
REMARK   82  A    between atoms: _198  and  _199
REMARK   83  A    between atoms: _198  and  _201
REMARK   84  A    between atoms: _201  and  _202
REMARK   85  A    between atoms: _205  and  _206
REMARK   86  A    between atoms: _211  and  _213
REMARK   87  A    between atoms: _213  and  _214
REMARK   88  A    between atoms: _216  and  _218
REMARK   89  A    between atoms: _218  and  _219
REMARK   90  A    between atoms: _222  and  _224
REMARK   91  A    between atoms: _224  and  _225
REMARK   92  A    between atoms: _224  and  _227
REMARK   93  A    between atoms: _227  and  _228
REMARK   94  A    between atoms: _231  and  _233
REMARK   95  A    between atoms: _233  and  _234
REMARK   96  A    between atoms: _237  and  _239
REMARK   97  A    between atoms: _239  and  _240
REMARK   98  A    between atoms: _239  and  _242
REMARK   99  A    between atoms: _242  and  _243
REMARK  100  A    between atoms: _248  and  _249
REMARK  101  A    between atoms: _251  and  _253
REMARK  102  A    between atoms: _253  and  _254
REMARK  103  A    between atoms: _256  and  _258
REMARK  104  A    between atoms: _258  and  _259
REMARK  105  A    between atoms: _262  and  _264
REMARK  106  A    between atoms: _264  and  _265
REMARK  107  A    between atoms: _264  and  _267
REMARK  108  A    between atoms: _267  and  _268
REMARK  109  A    between atoms: _271  and  _273
REMARK  110  A    between atoms: _273  and  _274
REMARK  111  A    between atoms: _276  and  _278
REMARK  112  A    between atoms: _278  and  _279
REMARK  113  A    between atoms: _281  and  _283
REMARK  114  A    between atoms: _283  and  _284
REMARK  115  A    between atoms: _283  and  _286
REMARK  116  A    between atoms: _286  and  _287
REMARK  117  A    between atoms: _293  and  _295
REMARK  118  A    between atoms: _295  and  _296
REMARK  119  A    between atoms: _295  and  _298
REMARK  120  A    between atoms: _298  and  _299
REMARK                            x       y       z     vdW  Elec       q    Type
REMARK                         _______ _______ _______ _____ _____    ______ ____
ROOT
ATOM      1  O   HOH     1      17.687  -1.779   4.448  0.00  0.00    +0.000 OA
ENDROOT
TORSDOF 0
REMARK  Name = ../refined-set-2016/3gtc/3gtc_pocket.pdb
REMARK  120 active torsions:
REMARK  status: ('A' for Active; 'I' for Inactive)
REMARK    1  A    between atoms: _1  and  _3
REMARK    2  A    between atoms: _3  and  _4
REMARK    3  A    between atoms: _3  and  _6
REMARK    4  A    between atoms: _6  and  _7
REMARK    5  A    between atoms: _7  and  _8
REMARK    6  A    between atoms: _11  and  _13
REMARK    7  A    between atoms: _13  and  _14
REMARK    8  A    between atoms: _16  and  _18
REMARK    9  A    between atoms: _18  and  _19
REMARK   10  A    between atoms: _18  and  _21
REMARK   11  A    between atoms: _21  and  _22
REMARK   12  A    between atoms: _24  and  _26
REMARK   13  A    between atoms: _26  and  _27
REMARK   14  A    between atoms: _26  and  _29
REMARK   15  A    between atoms: _29  and  _30
REMARK   16  A    between atoms: _30  and  _31
REMARK   17  A    between atoms: _31  and  _32
REMARK   18  A    between atoms: _32  and  _33
REMARK   19  A    between atoms: _37  and  _39
REMARK   20  A    between atoms: _39  and  _40
REMARK   21  A    between atoms: _39  and  _42
REMARK   22  A    between atoms: _42  and  _43
REMARK   23  A    between atoms: _46  and  _48
REMARK   24  A    between atoms: _48  and  _49
REMARK   25  A    between atoms: _48  and  _51
REMARK   26  A    between atoms: _51  and  _52
REMARK   27  A    between atoms: _52  and  _53
REMARK   28  A    between atoms: _58  and  _60
REMARK   29  A    between atoms: _60  and  _61
REMARK   30  A    between atoms: _60  and  _63
REMARK   31  A    between atoms: _66  and  _68
REMARK   32  A    between atoms: _68  and  _69
REMARK   33  A    between atoms: _68  and  _71
REMARK   34  A    between atoms: _71  and  _72
REMARK   35  A    between atoms: _75  and  _77
REMARK   36  A    between atoms: _77  and  _78
REMARK   37  A    between atoms: _77  and  _80
REMARK   38  A    between atoms: _80  and  _81
REMARK   39  A    between atoms: _86  and  _87
REMARK   40  A    between atoms: _89  and  _91
REMARK   41  A    between atoms: _91  and  _92
REMARK   42  A    between atoms: _91  and  _94
REMARK   43  A    between atoms: _94  and  _95
REMARK   44  A    between atoms: _100  and  _102
REMARK   45  A    between atoms: _102  and  _103
REMARK   46  A    between atoms: _102  and  _105
REMARK   47  A    between atoms: _105  and  _106
REMARK   48  A    between atoms: _111  and  _112
REMARK   49  A    between atoms: _114  and  _116
REMARK   50  A    between atoms: _116  and  _117
REMARK   51  A    between atoms: _119  and  _121
REMARK   52  A    between atoms: _121  and  _122
REMARK   53  A    between atoms: _121  and  _124
REMARK   54  A    between atoms: _124  and  _125
REMARK   55  A    between atoms: _130  and  _131
REMARK   56  A    between atoms: _133  and  _135
REMARK   57  A    between atoms: _135  and  _136
REMARK   58  A    between atoms: _135  and  _138
REMARK   59  A    between atoms: _138  and  _139
REMARK   60  A    between atoms: _139  and  _140
REMARK   61  A    between atoms: _140  and  _141
REMARK   62  A    between atoms: _150  and  _152
REMARK   63  A    between atoms: _152  and  _153
REMARK   64  A    between atoms: _152  and  _155
REMARK   65  A    between atoms: _155  and  _156
REMARK   66  A    between atoms: _156  and  _157
REMARK   67  A    between atoms: _157  and  _158
REMARK   68  A    between atoms: _158  and  _159
REMARK   69  A    between atoms: _163  and  _165
REMARK   70  A    between atoms: _165  and  _166
REMARK   71  A    between atoms: _169  and  _171
REMARK   72  A    between atoms: _171  and  _172
REMARK   73  A    between atoms: _171  and  _174
REMARK   74  A    between atoms: _177  and  _179
REMARK   75  A    between atoms: _179  and  _180
REMARK   76  A    between atoms: _179  and  _182
REMARK   77  A    between atoms: _182  and  _183
REMARK   78  A    between atoms: _188  and  _190
REMARK   79  A    between atoms: _190  and  _191
REMARK   80  A    between atoms: _190  and  _193
REMARK   81  A    between atoms: _196  and  _198
REMARK   82  A    between atoms: _198  and  _199
REMARK   83  A    between atoms: _198  and  _201
REMARK   84  A    between atoms: _201  and  _202
REMARK   85  A    between atoms: _205  and  _206
REMARK   86  A    between atoms: _211  and  _213
REMARK   87  A    between atoms: _213  and  _214
REMARK   88  A    between atoms: _216  and  _218
REMARK   89  A    between atoms: _218  and  _219
REMARK   90  A    between atoms: _222  and  _224
REMARK   91  A    between atoms: _224  and  _225
REMARK   92  A    between atoms: _224  and  _227
REMARK   93  A    between atoms: _227  and  _228
REMARK   94  A    between atoms: _231  and  _233
REMARK   95  A    between atoms: _233  and  _234
REMARK   96  A    between atoms: _237  and  _239
REMARK   97  A    between atoms: _239  and  _240
REMARK   98  A    between atoms: _239  and  _242
REMARK   99  A    between atoms: _242  and  _243
REMARK  100  A    between atoms: _248  and  _249
REMARK  101  A    between atoms: _251  and  _253
REMARK  102  A    between atoms: _253  and  _254
REMARK  103  A    between atoms: _256  and  _258
REMARK  104  A    between atoms: _258  and  _259
REMARK  105  A    between atoms: _262  and  _264
REMARK  106  A    between atoms: _264  and  _265
REMARK  107  A    between atoms: _264  and  _267
REMARK  108  A    between atoms: _267  and  _268
REMARK  109  A    between atoms: _271  and  _273
REMARK  110  A    between atoms: _273  and  _274
REMARK  111  A    between atoms: _276  and  _278
REMARK  112  A    between atoms: _278  and  _279
REMARK  113  A    between atoms: _281  and  _283
REMARK  114  A    between atoms: _283  and  _284
REMARK  115  A    between atoms: _283  and  _286
REMARK  116  A    between atoms: _286  and  _287
REMARK  117  A    between atoms: _293  and  _295
REMARK  118  A    between atoms: _295  and  _296
REMARK  119  A    between atoms: _295  and  _298
REMARK  120  A    between atoms: _298  and  _299
REMARK                            x       y       z     vdW  Elec       q    Type
REMARK                         _______ _______ _______ _____ _____    ______ ____
ROOT
ATOM      1  O   HOH     1      16.582   1.809   7.556  0.00  0.00    +0.000 OA
ENDROOT
TORSDOF 0
REMARK  Name = ../refined-set-2016/3gtc/3gtc_pocket.pdb
REMARK  120 active torsions:
REMARK  status: ('A' for Active; 'I' for Inactive)
REMARK    1  A    between atoms: _1  and  _3
REMARK    2  A    between atoms: _3  and  _4
REMARK    3  A    between atoms: _3  and  _6
REMARK    4  A    between atoms: _6  and  _7
REMARK    5  A    between atoms: _7  and  _8
REMARK    6  A    between atoms: _11  and  _13
REMARK    7  A    between atoms: _13  and  _14
REMARK    8  A    between atoms: _16  and  _18
REMARK    9  A    between atoms: _18  and  _19
REMARK   10  A    between atoms: _18  and  _21
REMARK   11  A    between atoms: _21  and  _22
REMARK   12  A    between atoms: _24  and  _26
REMARK   13  A    between atoms: _26  and  _27
REMARK   14  A    between atoms: _26  and  _29
REMARK   15  A    between atoms: _29  and  _30
REMARK   16  A    between atoms: _30  and  _31
REMARK   17  A    between atoms: _31  and  _32
REMARK   18  A    between atoms: _32  and  _33
REMARK   19  A    between atoms: _37  and  _39
REMARK   20  A    between atoms: _39  and  _40
REMARK   21  A    between atoms: _39  and  _42
REMARK   22  A    between atoms: _42  and  _43
REMARK   23  A    between atoms: _46  and  _48
REMARK   24  A    between atoms: _48  and  _49
REMARK   25  A    between atoms: _48  and  _51
REMARK   26  A    between atoms: _51  and  _52
REMARK   27  A    between atoms: _52  and  _53
REMARK   28  A    between atoms: _58  and  _60
REMARK   29  A    between atoms: _60  and  _61
REMARK   30  A    between atoms: _60  and  _63
REMARK   31  A    between atoms: _66  and  _68
REMARK   32  A    between atoms: _68  and  _69
REMARK   33  A    between atoms: _68  and  _71
REMARK   34  A    between atoms: _71  and  _72
REMARK   35  A    between atoms: _75  and  _77
REMARK   36  A    between atoms: _77  and  _78
REMARK   37  A    between atoms: _77  and  _80
REMARK   38  A    between atoms: _80  and  _81
REMARK   39  A    between atoms: _86  and  _87
REMARK   40  A    between atoms: _89  and  _91
REMARK   41  A    between atoms: _91  and  _92
REMARK   42  A    between atoms: _91  and  _94
REMARK   43  A    between atoms: _94  and  _95
REMARK   44  A    between atoms: _100  and  _102
REMARK   45  A    between atoms: _102  and  _103
REMARK   46  A    between atoms: _102  and  _105
REMARK   47  A    between atoms: _105  and  _106
REMARK   48  A    between atoms: _111  and  _112
REMARK   49  A    between atoms: _114  and  _116
REMARK   50  A    between atoms: _116  and  _117
REMARK   51  A    between atoms: _119  and  _121
REMARK   52  A    between atoms: _121  and  _122
REMARK   53  A    between atoms: _121  and  _124
REMARK   54  A    between atoms: _124  and  _125
REMARK   55  A    between atoms: _130  and  _131
REMARK   56  A    between atoms: _133  and  _135
REMARK   57  A    between atoms: _135  and  _136
REMARK   58  A    between atoms: _135  and  _138
REMARK   59  A    between atoms: _138  and  _139
REMARK   60  A    between atoms: _139  and  _140
REMARK   61  A    between atoms: _140  and  _141
REMARK   62  A    between atoms: _150  and  _152
REMARK   63  A    between atoms: _152  and  _153
REMARK   64  A    between atoms: _152  and  _155
REMARK   65  A    between atoms: _155  and  _156
REMARK   66  A    between atoms: _156  and  _157
REMARK   67  A    between atoms: _157  and  _158
REMARK   68  A    between atoms: _158  and  _159
REMARK   69  A    between atoms: _163  and  _165
REMARK   70  A    between atoms: _165  and  _166
REMARK   71  A    between atoms: _169  and  _171
REMARK   72  A    between atoms: _171  and  _172
REMARK   73  A    between atoms: _171  and  _174
REMARK   74  A    between atoms: _177  and  _179
REMARK   75  A    between atoms: _179  and  _180
REMARK   76  A    between atoms: _179  and  _182
REMARK   77  A    between atoms: _182  and  _183
REMARK   78  A    between atoms: _188  and  _190
REMARK   79  A    between atoms: _190  and  _191
REMARK   80  A    between atoms: _190  and  _193
REMARK   81  A    between atoms: _196  and  _198
REMARK   82  A    between atoms: _198  and  _199
REMARK   83  A    between atoms: _198  and  _201
REMARK   84  A    between atoms: _201  and  _202
REMARK   85  A    between atoms: _205  and  _206
REMARK   86  A    between atoms: _211  and  _213
REMARK   87  A    between atoms: _213  and  _214
REMARK   88  A    between atoms: _216  and  _218
REMARK   89  A    between atoms: _218  and  _219
REMARK   90  A    between atoms: _222  and  _224
REMARK   91  A    between atoms: _224  and  _225
REMARK   92  A    between atoms: _224  and  _227
REMARK   93  A    between atoms: _227  and  _228
REMARK   94  A    between atoms: _231  and  _233
REMARK   95  A    between atoms: _233  and  _234
REMARK   96  A    between atoms: _237  and  _239
REMARK   97  A    between atoms: _239  and  _240
REMARK   98  A    between atoms: _239  and  _242
REMARK   99  A    between atoms: _242  and  _243
REMARK  100  A    between atoms: _248  and  _249
REMARK  101  A    between atoms: _251  and  _253
REMARK  102  A    between atoms: _253  and  _254
REMARK  103  A    between atoms: _256  and  _258
REMARK  104  A    between atoms: _258  and  _259
REMARK  105  A    between atoms: _262  and  _264
REMARK  106  A    between atoms: _264  and  _265
REMARK  107  A    between atoms: _264  and  _267
REMARK  108  A    between atoms: _267  and  _268
REMARK  109  A    between atoms: _271  and  _273
REMARK  110  A    between atoms: _273  and  _274
REMARK  111  A    between atoms: _276  and  _278
REMARK  112  A    between atoms: _278  and  _279
REMARK  113  A    between atoms: _281  and  _283
REMARK  114  A    between atoms: _283  and  _284
REMARK  115  A    between atoms: _283  and  _286
REMARK  116  A    between atoms: _286  and  _287
REMARK  117  A    between atoms: _293  and  _295
REMARK  118  A    between atoms: _295  and  _296
REMARK  119  A    between atoms: _295  and  _298
REMARK  120  A    between atoms: _298  and  _299
REMARK                            x       y       z     vdW  Elec       q    Type
REMARK                         _______ _______ _______ _____ _____    ______ ____
ROOT
ATOM      1  O   HOH     1      21.023  -3.603   5.393  0.00  0.00    +0.000 OA
ENDROOT
TORSDOF 0
REMARK  Name = ../refined-set-2016/3gtc/3gtc_pocket.pdb
REMARK  120 active torsions:
REMARK  status: ('A' for Active; 'I' for Inactive)
REMARK    1  A    between atoms: _1  and  _3
REMARK    2  A    between atoms: _3  and  _4
REMARK    3  A    between atoms: _3  and  _6
REMARK    4  A    between atoms: _6  and  _7
REMARK    5  A    between atoms: _7  and  _8
REMARK    6  A    between atoms: _11  and  _13
REMARK    7  A    between atoms: _13  and  _14
REMARK    8  A    between atoms: _16  and  _18
REMARK    9  A    between atoms: _18  and  _19
REMARK   10  A    between atoms: _18  and  _21
REMARK   11  A    between atoms: _21  and  _22
REMARK   12  A    between atoms: _24  and  _26
REMARK   13  A    between atoms: _26  and  _27
REMARK   14  A    between atoms: _26  and  _29
REMARK   15  A    between atoms: _29  and  _30
REMARK   16  A    between atoms: _30  and  _31
REMARK   17  A    between atoms: _31  and  _32
REMARK   18  A    between atoms: _32  and  _33
REMARK   19  A    between atoms: _37  and  _39
REMARK   20  A    between atoms: _39  and  _40
REMARK   21  A    between atoms: _39  and  _42
REMARK   22  A    between atoms: _42  and  _43
REMARK   23  A    between atoms: _46  and  _48
REMARK   24  A    between atoms: _48  and  _49
REMARK   25  A    between atoms: _48  and  _51
REMARK   26  A    between atoms: _51  and  _52
REMARK   27  A    between atoms: _52  and  _53
REMARK   28  A    between atoms: _58  and  _60
REMARK   29  A    between atoms: _60  and  _61
REMARK   30  A    between atoms: _60  and  _63
REMARK   31  A    between atoms: _66  and  _68
REMARK   32  A    between atoms: _68  and  _69
REMARK   33  A    between atoms: _68  and  _71
REMARK   34  A    between atoms: _71  and  _72
REMARK   35  A    between atoms: _75  and  _77
REMARK   36  A    between atoms: _77  and  _78
REMARK   37  A    between atoms: _77  and  _80
REMARK   38  A    between atoms: _80  and  _81
REMARK   39  A    between atoms: _86  and  _87
REMARK   40  A    between atoms: _89  and  _91
REMARK   41  A    between atoms: _91  and  _92
REMARK   42  A    between atoms: _91  and  _94
REMARK   43  A    between atoms: _94  and  _95
REMARK   44  A    between atoms: _100  and  _102
REMARK   45  A    between atoms: _102  and  _103
REMARK   46  A    between atoms: _102  and  _105
REMARK   47  A    between atoms: _105  and  _106
REMARK   48  A    between atoms: _111  and  _112
REMARK   49  A    between atoms: _114  and  _116
REMARK   50  A    between atoms: _116  and  _117
REMARK   51  A    between atoms: _119  and  _121
REMARK   52  A    between atoms: _121  and  _122
REMARK   53  A    between atoms: _121  and  _124
REMARK   54  A    between atoms: _124  and  _125
REMARK   55  A    between atoms: _130  and  _131
REMARK   56  A    between atoms: _133  and  _135
REMARK   57  A    between atoms: _135  and  _136
REMARK   58  A    between atoms: _135  and  _138
REMARK   59  A    between atoms: _138  and  _139
REMARK   60  A    between atoms: _139  and  _140
REMARK   61  A    between atoms: _140  and  _141
REMARK   62  A    between atoms: _150  and  _152
REMARK   63  A    between atoms: _152  and  _153
REMARK   64  A    between atoms: _152  and  _155
REMARK   65  A    between atoms: _155  and  _156
REMARK   66  A    between atoms: _156  and  _157
REMARK   67  A    between atoms: _157  and  _158
REMARK   68  A    between atoms: _158  and  _159
REMARK   69  A    between atoms: _163  and  _165
REMARK   70  A    between atoms: _165  and  _166
REMARK   71  A    between atoms: _169  and  _171
REMARK   72  A    between atoms: _171  and  _172
REMARK   73  A    between atoms: _171  and  _174
REMARK   74  A    between atoms: _177  and  _179
REMARK   75  A    between atoms: _179  and  _180
REMARK   76  A    between atoms: _179  and  _182
REMARK   77  A    between atoms: _182  and  _183
REMARK   78  A    between atoms: _188  and  _190
REMARK   79  A    between atoms: _190  and  _191
REMARK   80  A    between atoms: _190  and  _193
REMARK   81  A    between atoms: _196  and  _198
REMARK   82  A    between atoms: _198  and  _199
REMARK   83  A    between atoms: _198  and  _201
REMARK   84  A    between atoms: _201  and  _202
REMARK   85  A    between atoms: _205  and  _206
REMARK   86  A    between atoms: _211  and  _213
REMARK   87  A    between atoms: _213  and  _214
REMARK   88  A    between atoms: _216  and  _218
REMARK   89  A    between atoms: _218  and  _219
REMARK   90  A    between atoms: _222  and  _224
REMARK   91  A    between atoms: _224  and  _225
REMARK   92  A    between atoms: _224  and  _227
REMARK   93  A    between atoms: _227  and  _228
REMARK   94  A    between atoms: _231  and  _233
REMARK   95  A    between atoms: _233  and  _234
REMARK   96  A    between atoms: _237  and  _239
REMARK   97  A    between atoms: _239  and  _240
REMARK   98  A    between atoms: _239  and  _242
REMARK   99  A    between atoms: _242  and  _243
REMARK  100  A    between atoms: _248  and  _249
REMARK  101  A    between atoms: _251  and  _253
REMARK  102  A    between atoms: _253  and  _254
REMARK  103  A    between atoms: _256  and  _258
REMARK  104  A    between atoms: _258  and  _259
REMARK  105  A    between atoms: _262  and  _264
REMARK  106  A    between atoms: _264  and  _265
REMARK  107  A    between atoms: _264  and  _267
REMARK  108  A    between atoms: _267  and  _268
REMARK  109  A    between atoms: _271  and  _273
REMARK  110  A    between atoms: _273  and  _274
REMARK  111  A    between atoms: _276  and  _278
REMARK  112  A    between atoms: _278  and  _279
REMARK  113  A    between atoms: _281  and  _283
REMARK  114  A    between atoms: _283  and  _284
REMARK  115  A    between atoms: _283  and  _286
REMARK  116  A    between atoms: _286  and  _287
REMARK  117  A    between atoms: _293  and  _295
REMARK  118  A    between atoms: _295  and  _296
REMARK  119  A    between atoms: _295  and  _298
REMARK  120  A    between atoms: _298  and  _299
REMARK                            x       y       z     vdW  Elec       q    Type
REMARK                         _______ _______ _______ _____ _____    ______ ____
ROOT
ATOM      1  O   HOH     1      25.322   8.273   4.816  0.00  0.00    +0.000 OA
ENDROOT
TORSDOF 0
REMARK  Name = ../refined-set-2016/3gtc/3gtc_pocket.pdb
REMARK  120 active torsions:
REMARK  status: ('A' for Active; 'I' for Inactive)
REMARK    1  A    between atoms: _1  and  _3
REMARK    2  A    between atoms: _3  and  _4
REMARK    3  A    between atoms: _3  and  _6
REMARK    4  A    between atoms: _6  and  _7
REMARK    5  A    between atoms: _7  and  _8
REMARK    6  A    between atoms: _11  and  _13
REMARK    7  A    between atoms: _13  and  _14
REMARK    8  A    between atoms: _16  and  _18
REMARK    9  A    between atoms: _18  and  _19
REMARK   10  A    between atoms: _18  and  _21
REMARK   11  A    between atoms: _21  and  _22
REMARK   12  A    between atoms: _24  and  _26
REMARK   13  A    between atoms: _26  and  _27
REMARK   14  A    between atoms: _26  and  _29
REMARK   15  A    between atoms: _29  and  _30
REMARK   16  A    between atoms: _30  and  _31
REMARK   17  A    between atoms: _31  and  _32
REMARK   18  A    between atoms: _32  and  _33
REMARK   19  A    between atoms: _37  and  _39
REMARK   20  A    between atoms: _39  and  _40
REMARK   21  A    between atoms: _39  and  _42
REMARK   22  A    between atoms: _42  and  _43
REMARK   23  A    between atoms: _46  and  _48
REMARK   24  A    between atoms: _48  and  _49
REMARK   25  A    between atoms: _48  and  _51
REMARK   26  A    between atoms: _51  and  _52
REMARK   27  A    between atoms: _52  and  _53
REMARK   28  A    between atoms: _58  and  _60
REMARK   29  A    between atoms: _60  and  _61
REMARK   30  A    between atoms: _60  and  _63
REMARK   31  A    between atoms: _66  and  _68
REMARK   32  A    between atoms: _68  and  _69
REMARK   33  A    between atoms: _68  and  _71
REMARK   34  A    between atoms: _71  and  _72
REMARK   35  A    between atoms: _75  and  _77
REMARK   36  A    between atoms: _77  and  _78
REMARK   37  A    between atoms: _77  and  _80
REMARK   38  A    between atoms: _80  and  _81
REMARK   39  A    between atoms: _86  and  _87
REMARK   40  A    between atoms: _89  and  _91
REMARK   41  A    between atoms: _91  and  _92
REMARK   42  A    between atoms: _91  and  _94
REMARK   43  A    between atoms: _94  and  _95
REMARK   44  A    between atoms: _100  and  _102
REMARK   45  A    between atoms: _102  and  _103
REMARK   46  A    between atoms: _102  and  _105
REMARK   47  A    between atoms: _105  and  _106
REMARK   48  A    between atoms: _111  and  _112
REMARK   49  A    between atoms: _114  and  _116
REMARK   50  A    between atoms: _116  and  _117
REMARK   51  A    between atoms: _119  and  _121
REMARK   52  A    between atoms: _121  and  _122
REMARK   53  A    between atoms: _121  and  _124
REMARK   54  A    between atoms: _124  and  _125
REMARK   55  A    between atoms: _130  and  _131
REMARK   56  A    between atoms: _133  and  _135
REMARK   57  A    between atoms: _135  and  _136
REMARK   58  A    between atoms: _135  and  _138
REMARK   59  A    between atoms: _138  and  _139
REMARK   60  A    between atoms: _139  and  _140
REMARK   61  A    between atoms: _140  and  _141
REMARK   62  A    between atoms: _150  and  _152
REMARK   63  A    between atoms: _152  and  _153
REMARK   64  A    between atoms: _152  and  _155
REMARK   65  A    between atoms: _155  and  _156
REMARK   66  A    between atoms: _156  and  _157
REMARK   67  A    between atoms: _157  and  _158
REMARK   68  A    between atoms: _158  and  _159
REMARK   69  A    between atoms: _163  and  _165
REMARK   70  A    between atoms: _165  and  _166
REMARK   71  A    between atoms: _169  and  _171
REMARK   72  A    between atoms: _171  and  _172
REMARK   73  A    between atoms: _171  and  _174
REMARK   74  A    between atoms: _177  and  _179
REMARK   75  A    between atoms: _179  and  _180
REMARK   76  A    between atoms: _179  and  _182
REMARK   77  A    between atoms: _182  and  _183
REMARK   78  A    between atoms: _188  and  _190
REMARK   79  A    between atoms: _190  and  _191
REMARK   80  A    between atoms: _190  and  _193
REMARK   81  A    between atoms: _196  and  _198
REMARK   82  A    between atoms: _198  and  _199
REMARK   83  A    between atoms: _198  and  _201
REMARK   84  A    between atoms: _201  and  _202
REMARK   85  A    between atoms: _205  and  _206
REMARK   86  A    between atoms: _211  and  _213
REMARK   87  A    between atoms: _213  and  _214
REMARK   88  A    between atoms: _216  and  _218
REMARK   89  A    between atoms: _218  and  _219
REMARK   90  A    between atoms: _222  and  _224
REMARK   91  A    between atoms: _224  and  _225
REMARK   92  A    between atoms: _224  and  _227
REMARK   93  A    between atoms: _227  and  _228
REMARK   94  A    between atoms: _231  and  _233
REMARK   95  A    between atoms: _233  and  _234
REMARK   96  A    between atoms: _237  and  _239
REMARK   97  A    between atoms: _239  and  _240
REMARK   98  A    between atoms: _239  and  _242
REMARK   99  A    between atoms: _242  and  _243
REMARK  100  A    between atoms: _248  and  _249
REMARK  101  A    between atoms: _251  and  _253
REMARK  102  A    between atoms: _253  and  _254
REMARK  103  A    between atoms: _256  and  _258
REMARK  104  A    between atoms: _258  and  _259
REMARK  105  A    between atoms: _262  and  _264
REMARK  106  A    between atoms: _264  and  _265
REMARK  107  A    between atoms: _264  and  _267
REMARK  108  A    between atoms: _267  and  _268
REMARK  109  A    between atoms: _271  and  _273
REMARK  110  A    between atoms: _273  and  _274
REMARK  111  A    between atoms: _276  and  _278
REMARK  112  A    between atoms: _278  and  _279
REMARK  113  A    between atoms: _281  and  _283
REMARK  114  A    between atoms: _283  and  _284
REMARK  115  A    between atoms: _283  and  _286
REMARK  116  A    between atoms: _286  and  _287
REMARK  117  A    between atoms: _293  and  _295
REMARK  118  A    between atoms: _295  and  _296
REMARK  119  A    between atoms: _295  and  _298
REMARK  120  A    between atoms: _298  and  _299
REMARK                            x       y       z     vdW  Elec       q    Type
REMARK                         _______ _______ _______ _____ _____    ______ ____
ROOT
ATOM      1  O   HOH     1      25.306  -1.951   7.774  0.00  0.00    +0.000 OA
ENDROOT
TORSDOF 0
REMARK  Name = ../refined-set-2016/3gtc/3gtc_pocket.pdb
REMARK  120 active torsions:
REMARK  status: ('A' for Active; 'I' for Inactive)
REMARK    1  A    between atoms: _1  and  _3
REMARK    2  A    between atoms: _3  and  _4
REMARK    3  A    between atoms: _3  and  _6
REMARK    4  A    between atoms: _6  and  _7
REMARK    5  A    between atoms: _7  and  _8
REMARK    6  A    between atoms: _11  and  _13
REMARK    7  A    between atoms: _13  and  _14
REMARK    8  A    between atoms: _16  and  _18
REMARK    9  A    between atoms: _18  and  _19
REMARK   10  A    between atoms: _18  and  _21
REMARK   11  A    between atoms: _21  and  _22
REMARK   12  A    between atoms: _24  and  _26
REMARK   13  A    between atoms: _26  and  _27
REMARK   14  A    between atoms: _26  and  _29
REMARK   15  A    between atoms: _29  and  _30
REMARK   16  A    between atoms: _30  and  _31
REMARK   17  A    between atoms: _31  and  _32
REMARK   18  A    between atoms: _32  and  _33
REMARK   19  A    between atoms: _37  and  _39
REMARK   20  A    between atoms: _39  and  _40
REMARK   21  A    between atoms: _39  and  _42
REMARK   22  A    between atoms: _42  and  _43
REMARK   23  A    between atoms: _46  and  _48
REMARK   24  A    between atoms: _48  and  _49
REMARK   25  A    between atoms: _48  and  _51
REMARK   26  A    between atoms: _51  and  _52
REMARK   27  A    between atoms: _52  and  _53
REMARK   28  A    between atoms: _58  and  _60
REMARK   29  A    between atoms: _60  and  _61
REMARK   30  A    between atoms: _60  and  _63
REMARK   31  A    between atoms: _66  and  _68
REMARK   32  A    between atoms: _68  and  _69
REMARK   33  A    between atoms: _68  and  _71
REMARK   34  A    between atoms: _71  and  _72
REMARK   35  A    between atoms: _75  and  _77
REMARK   36  A    between atoms: _77  and  _78
REMARK   37  A    between atoms: _77  and  _80
REMARK   38  A    between atoms: _80  and  _81
REMARK   39  A    between atoms: _86  and  _87
REMARK   40  A    between atoms: _89  and  _91
REMARK   41  A    between atoms: _91  and  _92
REMARK   42  A    between atoms: _91  and  _94
REMARK   43  A    between atoms: _94  and  _95
REMARK   44  A    between atoms: _100  and  _102
REMARK   45  A    between atoms: _102  and  _103
REMARK   46  A    between atoms: _102  and  _105
REMARK   47  A    between atoms: _105  and  _106
REMARK   48  A    between atoms: _111  and  _112
REMARK   49  A    between atoms: _114  and  _116
REMARK   50  A    between atoms: _116  and  _117
REMARK   51  A    between atoms: _119  and  _121
REMARK   52  A    between atoms: _121  and  _122
REMARK   53  A    between atoms: _121  and  _124
REMARK   54  A    between atoms: _124  and  _125
REMARK   55  A    between atoms: _130  and  _131
REMARK   56  A    between atoms: _133  and  _135
REMARK   57  A    between atoms: _135  and  _136
REMARK   58  A    between atoms: _135  and  _138
REMARK   59  A    between atoms: _138  and  _139
REMARK   60  A    between atoms: _139  and  _140
REMARK   61  A    between atoms: _140  and  _141
REMARK   62  A    between atoms: _150  and  _152
REMARK   63  A    between atoms: _152  and  _153
REMARK   64  A    between atoms: _152  and  _155
REMARK   65  A    between atoms: _155  and  _156
REMARK   66  A    between atoms: _156  and  _157
REMARK   67  A    between atoms: _157  and  _158
REMARK   68  A    between atoms: _158  and  _159
REMARK   69  A    between atoms: _163  and  _165
REMARK   70  A    between atoms: _165  and  _166
REMARK   71  A    between atoms: _169  and  _171
REMARK   72  A    between atoms: _171  and  _172
REMARK   73  A    between atoms: _171  and  _174
REMARK   74  A    between atoms: _177  and  _179
REMARK   75  A    between atoms: _179  and  _180
REMARK   76  A    between atoms: _179  and  _182
REMARK   77  A    between atoms: _182  and  _183
REMARK   78  A    between atoms: _188  and  _190
REMARK   79  A    between atoms: _190  and  _191
REMARK   80  A    between atoms: _190  and  _193
REMARK   81  A    between atoms: _196  and  _198
REMARK   82  A    between atoms: _198  and  _199
REMARK   83  A    between atoms: _198  and  _201
REMARK   84  A    between atoms: _201  and  _202
REMARK   85  A    between atoms: _205  and  _206
REMARK   86  A    between atoms: _211  and  _213
REMARK   87  A    between atoms: _213  and  _214
REMARK   88  A    between atoms: _216  and  _218
REMARK   89  A    between atoms: _218  and  _219
REMARK   90  A    between atoms: _222  and  _224
REMARK   91  A    between atoms: _224  and  _225
REMARK   92  A    between atoms: _224  and  _227
REMARK   93  A    between atoms: _227  and  _228
REMARK   94  A    between atoms: _231  and  _233
REMARK   95  A    between atoms: _233  and  _234
REMARK   96  A    between atoms: _237  and  _239
REMARK   97  A    between atoms: _239  and  _240
REMARK   98  A    between atoms: _239  and  _242
REMARK   99  A    between atoms: _242  and  _243
REMARK  100  A    between atoms: _248  and  _249
REMARK  101  A    between atoms: _251  and  _253
REMARK  102  A    between atoms: _253  and  _254
REMARK  103  A    between atoms: _256  and  _258
REMARK  104  A    between atoms: _258  and  _259
REMARK  105  A    between atoms: _262  and  _264
REMARK  106  A    between atoms: _264  and  _265
REMARK  107  A    between atoms: _264  and  _267
REMARK  108  A    between atoms: _267  and  _268
REMARK  109  A    between atoms: _271  and  _273
REMARK  110  A    between atoms: _273  and  _274
REMARK  111  A    between atoms: _276  and  _278
REMARK  112  A    between atoms: _278  and  _279
REMARK  113  A    between atoms: _281  and  _283
REMARK  114  A    between atoms: _283  and  _284
REMARK  115  A    between atoms: _283  and  _286
REMARK  116  A    between atoms: _286  and  _287
REMARK  117  A    between atoms: _293  and  _295
REMARK  118  A    between atoms: _295  and  _296
REMARK  119  A    between atoms: _295  and  _298
REMARK  120  A    between atoms: _298  and  _299
REMARK                            x       y       z     vdW  Elec       q    Type
REMARK                         _______ _______ _______ _____ _____    ______ ____
ROOT
ATOM      1  O   HOH     1      20.441   6.970  18.155  0.00  0.00    +0.000 OA
ENDROOT
TORSDOF 0
REMARK  Name = ../refined-set-2016/3gtc/3gtc_pocket.pdb
REMARK  120 active torsions:
REMARK  status: ('A' for Active; 'I' for Inactive)
REMARK    1  A    between atoms: _1  and  _3
REMARK    2  A    between atoms: _3  and  _4
REMARK    3  A    between atoms: _3  and  _6
REMARK    4  A    between atoms: _6  and  _7
REMARK    5  A    between atoms: _7  and  _8
REMARK    6  A    between atoms: _11  and  _13
REMARK    7  A    between atoms: _13  and  _14
REMARK    8  A    between atoms: _16  and  _18
REMARK    9  A    between atoms: _18  and  _19
REMARK   10  A    between atoms: _18  and  _21
REMARK   11  A    between atoms: _21  and  _22
REMARK   12  A    between atoms: _24  and  _26
REMARK   13  A    between atoms: _26  and  _27
REMARK   14  A    between atoms: _26  and  _29
REMARK   15  A    between atoms: _29  and  _30
REMARK   16  A    between atoms: _30  and  _31
REMARK   17  A    between atoms: _31  and  _32
REMARK   18  A    between atoms: _32  and  _33
REMARK   19  A    between atoms: _37  and  _39
REMARK   20  A    between atoms: _39  and  _40
REMARK   21  A    between atoms: _39  and  _42
REMARK   22  A    between atoms: _42  and  _43
REMARK   23  A    between atoms: _46  and  _48
REMARK   24  A    between atoms: _48  and  _49
REMARK   25  A    between atoms: _48  and  _51
REMARK   26  A    between atoms: _51  and  _52
REMARK   27  A    between atoms: _52  and  _53
REMARK   28  A    between atoms: _58  and  _60
REMARK   29  A    between atoms: _60  and  _61
REMARK   30  A    between atoms: _60  and  _63
REMARK   31  A    between atoms: _66  and  _68
REMARK   32  A    between atoms: _68  and  _69
REMARK   33  A    between atoms: _68  and  _71
REMARK   34  A    between atoms: _71  and  _72
REMARK   35  A    between atoms: _75  and  _77
REMARK   36  A    between atoms: _77  and  _78
REMARK   37  A    between atoms: _77  and  _80
REMARK   38  A    between atoms: _80  and  _81
REMARK   39  A    between atoms: _86  and  _87
REMARK   40  A    between atoms: _89  and  _91
REMARK   41  A    between atoms: _91  and  _92
REMARK   42  A    between atoms: _91  and  _94
REMARK   43  A    between atoms: _94  and  _95
REMARK   44  A    between atoms: _100  and  _102
REMARK   45  A    between atoms: _102  and  _103
REMARK   46  A    between atoms: _102  and  _105
REMARK   47  A    between atoms: _105  and  _106
REMARK   48  A    between atoms: _111  and  _112
REMARK   49  A    between atoms: _114  and  _116
REMARK   50  A    between atoms: _116  and  _117
REMARK   51  A    between atoms: _119  and  _121
REMARK   52  A    between atoms: _121  and  _122
REMARK   53  A    between atoms: _121  and  _124
REMARK   54  A    between atoms: _124  and  _125
REMARK   55  A    between atoms: _130  and  _131
REMARK   56  A    between atoms: _133  and  _135
REMARK   57  A    between atoms: _135  and  _136
REMARK   58  A    between atoms: _135  and  _138
REMARK   59  A    between atoms: _138  and  _139
REMARK   60  A    between atoms: _139  and  _140
REMARK   61  A    between atoms: _140  and  _141
REMARK   62  A    between atoms: _150  and  _152
REMARK   63  A    between atoms: _152  and  _153
REMARK   64  A    between atoms: _152  and  _155
REMARK   65  A    between atoms: _155  and  _156
REMARK   66  A    between atoms: _156  and  _157
REMARK   67  A    between atoms: _157  and  _158
REMARK   68  A    between atoms: _158  and  _159
REMARK   69  A    between atoms: _163  and  _165
REMARK   70  A    between atoms: _165  and  _166
REMARK   71  A    between atoms: _169  and  _171
REMARK   72  A    between atoms: _171  and  _172
REMARK   73  A    between atoms: _171  and  _174
REMARK   74  A    between atoms: _177  and  _179
REMARK   75  A    between atoms: _179  and  _180
REMARK   76  A    between atoms: _179  and  _182
REMARK   77  A    between atoms: _182  and  _183
REMARK   78  A    between atoms: _188  and  _190
REMARK   79  A    between atoms: _190  and  _191
REMARK   80  A    between atoms: _190  and  _193
REMARK   81  A    between atoms: _196  and  _198
REMARK   82  A    between atoms: _198  and  _199
REMARK   83  A    between atoms: _198  and  _201
REMARK   84  A    between atoms: _201  and  _202
REMARK   85  A    between atoms: _205  and  _206
REMARK   86  A    between atoms: _211  and  _213
REMARK   87  A    between atoms: _213  and  _214
REMARK   88  A    between atoms: _216  and  _218
REMARK   89  A    between atoms: _218  and  _219
REMARK   90  A    between atoms: _222  and  _224
REMARK   91  A    between atoms: _224  and  _225
REMARK   92  A    between atoms: _224  and  _227
REMARK   93  A    between atoms: _227  and  _228
REMARK   94  A    between atoms: _231  and  _233
REMARK   95  A    between atoms: _233  and  _234
REMARK   96  A    between atoms: _237  and  _239
REMARK   97  A    between atoms: _239  and  _240
REMARK   98  A    between atoms: _239  and  _242
REMARK   99  A    between atoms: _242  and  _243
REMARK  100  A    between atoms: _248  and  _249
REMARK  101  A    between atoms: _251  and  _253
REMARK  102  A    between atoms: _253  and  _254
REMARK  103  A    between atoms: _256  and  _258
REMARK  104  A    between atoms: _258  and  _259
REMARK  105  A    between atoms: _262  and  _264
REMARK  106  A    between atoms: _264  and  _265
REMARK  107  A    between atoms: _264  and  _267
REMARK  108  A    between atoms: _267  and  _268
REMARK  109  A    between atoms: _271  and  _273
REMARK  110  A    between atoms: _273  and  _274
REMARK  111  A    between atoms: _276  and  _278
REMARK  112  A    between atoms: _278  and  _279
REMARK  113  A    between atoms: _281  and  _283
REMARK  114  A    between atoms: _283  and  _284
REMARK  115  A    between atoms: _283  and  _286
REMARK  116  A    between atoms: _286  and  _287
REMARK  117  A    between atoms: _293  and  _295
REMARK  118  A    between atoms: _295  and  _296
REMARK  119  A    between atoms: _295  and  _298
REMARK  120  A    between atoms: _298  and  _299
REMARK                            x       y       z     vdW  Elec       q    Type
REMARK                         _______ _______ _______ _____ _____    ______ ____
ROOT
ATOM      1  O   HOH     1      15.202   3.040  10.521  0.00  0.00    +0.000 OA
ENDROOT
TORSDOF 0
REMARK  Name = ../refined-set-2016/3gtc/3gtc_pocket.pdb
REMARK  120 active torsions:
REMARK  status: ('A' for Active; 'I' for Inactive)
REMARK    1  A    between atoms: _1  and  _3
REMARK    2  A    between atoms: _3  and  _4
REMARK    3  A    between atoms: _3  and  _6
REMARK    4  A    between atoms: _6  and  _7
REMARK    5  A    between atoms: _7  and  _8
REMARK    6  A    between atoms: _11  and  _13
REMARK    7  A    between atoms: _13  and  _14
REMARK    8  A    between atoms: _16  and  _18
REMARK    9  A    between atoms: _18  and  _19
REMARK   10  A    between atoms: _18  and  _21
REMARK   11  A    between atoms: _21  and  _22
REMARK   12  A    between atoms: _24  and  _26
REMARK   13  A    between atoms: _26  and  _27
REMARK   14  A    between atoms: _26  and  _29
REMARK   15  A    between atoms: _29  and  _30
REMARK   16  A    between atoms: _30  and  _31
REMARK   17  A    between atoms: _31  and  _32
REMARK   18  A    between atoms: _32  and  _33
REMARK   19  A    between atoms: _37  and  _39
REMARK   20  A    between atoms: _39  and  _40
REMARK   21  A    between atoms: _39  and  _42
REMARK   22  A    between atoms: _42  and  _43
REMARK   23  A    between atoms: _46  and  _48
REMARK   24  A    between atoms: _48  and  _49
REMARK   25  A    between atoms: _48  and  _51
REMARK   26  A    between atoms: _51  and  _52
REMARK   27  A    between atoms: _52  and  _53
REMARK   28  A    between atoms: _58  and  _60
REMARK   29  A    between atoms: _60  and  _61
REMARK   30  A    between atoms: _60  and  _63
REMARK   31  A    between atoms: _66  and  _68
REMARK   32  A    between atoms: _68  and  _69
REMARK   33  A    between atoms: _68  and  _71
REMARK   34  A    between atoms: _71  and  _72
REMARK   35  A    between atoms: _75  and  _77
REMARK   36  A    between atoms: _77  and  _78
REMARK   37  A    between atoms: _77  and  _80
REMARK   38  A    between atoms: _80  and  _81
REMARK   39  A    between atoms: _86  and  _87
REMARK   40  A    between atoms: _89  and  _91
REMARK   41  A    between atoms: _91  and  _92
REMARK   42  A    between atoms: _91  and  _94
REMARK   43  A    between atoms: _94  and  _95
REMARK   44  A    between atoms: _100  and  _102
REMARK   45  A    between atoms: _102  and  _103
REMARK   46  A    between atoms: _102  and  _105
REMARK   47  A    between atoms: _105  and  _106
REMARK   48  A    between atoms: _111  and  _112
REMARK   49  A    between atoms: _114  and  _116
REMARK   50  A    between atoms: _116  and  _117
REMARK   51  A    between atoms: _119  and  _121
REMARK   52  A    between atoms: _121  and  _122
REMARK   53  A    between atoms: _121  and  _124
REMARK   54  A    between atoms: _124  and  _125
REMARK   55  A    between atoms: _130  and  _131
REMARK   56  A    between atoms: _133  and  _135
REMARK   57  A    between atoms: _135  and  _136
REMARK   58  A    between atoms: _135  and  _138
REMARK   59  A    between atoms: _138  and  _139
REMARK   60  A    between atoms: _139  and  _140
REMARK   61  A    between atoms: _140  and  _141
REMARK   62  A    between atoms: _150  and  _152
REMARK   63  A    between atoms: _152  and  _153
REMARK   64  A    between atoms: _152  and  _155
REMARK   65  A    between atoms: _155  and  _156
REMARK   66  A    between atoms: _156  and  _157
REMARK   67  A    between atoms: _157  and  _158
REMARK   68  A    between atoms: _158  and  _159
REMARK   69  A    between atoms: _163  and  _165
REMARK   70  A    between atoms: _165  and  _166
REMARK   71  A    between atoms: _169  and  _171
REMARK   72  A    between atoms: _171  and  _172
REMARK   73  A    between atoms: _171  and  _174
REMARK   74  A    between atoms: _177  and  _179
REMARK   75  A    between atoms: _179  and  _180
REMARK   76  A    between atoms: _179  and  _182
REMARK   77  A    between atoms: _182  and  _183
REMARK   78  A    between atoms: _188  and  _190
REMARK   79  A    between atoms: _190  and  _191
REMARK   80  A    between atoms: _190  and  _193
REMARK   81  A    between atoms: _196  and  _198
REMARK   82  A    between atoms: _198  and  _199
REMARK   83  A    between atoms: _198  and  _201
REMARK   84  A    between atoms: _201  and  _202
REMARK   85  A    between atoms: _205  and  _206
REMARK   86  A    between atoms: _211  and  _213
REMARK   87  A    between atoms: _213  and  _214
REMARK   88  A    between atoms: _216  and  _218
REMARK   89  A    between atoms: _218  and  _219
REMARK   90  A    between atoms: _222  and  _224
REMARK   91  A    between atoms: _224  and  _225
REMARK   92  A    between atoms: _224  and  _227
REMARK   93  A    between atoms: _227  and  _228
REMARK   94  A    between atoms: _231  and  _233
REMARK   95  A    between atoms: _233  and  _234
REMARK   96  A    between atoms: _237  and  _239
REMARK   97  A    between atoms: _239  and  _240
REMARK   98  A    between atoms: _239  and  _242
REMARK   99  A    between atoms: _242  and  _243
REMARK  100  A    between atoms: _248  and  _249
REMARK  101  A    between atoms: _251  and  _253
REMARK  102  A    between atoms: _253  and  _254
REMARK  103  A    between atoms: _256  and  _258
REMARK  104  A    between atoms: _258  and  _259
REMARK  105  A    between atoms: _262  and  _264
REMARK  106  A    between atoms: _264  and  _265
REMARK  107  A    between atoms: _264  and  _267
REMARK  108  A    between atoms: _267  and  _268
REMARK  109  A    between atoms: _271  and  _273
REMARK  110  A    between atoms: _273  and  _274
REMARK  111  A    between atoms: _276  and  _278
REMARK  112  A    between atoms: _278  and  _279
REMARK  113  A    between atoms: _281  and  _283
REMARK  114  A    between atoms: _283  and  _284
REMARK  115  A    between atoms: _283  and  _286
REMARK  116  A    between atoms: _286  and  _287
REMARK  117  A    between atoms: _293  and  _295
REMARK  118  A    between atoms: _295  and  _296
REMARK  119  A    between atoms: _295  and  _298
REMARK  120  A    between atoms: _298  and  _299
REMARK                            x       y       z     vdW  Elec       q    Type
REMARK                         _______ _______ _______ _____ _____    ______ ____
ROOT
ATOM      1  O   HOH     1      13.108   4.127   9.341  0.00  0.00    +0.000 OA
ENDROOT
TORSDOF 0
REMARK  Name = ../refined-set-2016/3gtc/3gtc_pocket.pdb
REMARK  120 active torsions:
REMARK  status: ('A' for Active; 'I' for Inactive)
REMARK    1  A    between atoms: _1  and  _3
REMARK    2  A    between atoms: _3  and  _4
REMARK    3  A    between atoms: _3  and  _6
REMARK    4  A    between atoms: _6  and  _7
REMARK    5  A    between atoms: _7  and  _8
REMARK    6  A    between atoms: _11  and  _13
REMARK    7  A    between atoms: _13  and  _14
REMARK    8  A    between atoms: _16  and  _18
REMARK    9  A    between atoms: _18  and  _19
REMARK   10  A    between atoms: _18  and  _21
REMARK   11  A    between atoms: _21  and  _22
REMARK   12  A    between atoms: _24  and  _26
REMARK   13  A    between atoms: _26  and  _27
REMARK   14  A    between atoms: _26  and  _29
REMARK   15  A    between atoms: _29  and  _30
REMARK   16  A    between atoms: _30  and  _31
REMARK   17  A    between atoms: _31  and  _32
REMARK   18  A    between atoms: _32  and  _33
REMARK   19  A    between atoms: _37  and  _39
REMARK   20  A    between atoms: _39  and  _40
REMARK   21  A    between atoms: _39  and  _42
REMARK   22  A    between atoms: _42  and  _43
REMARK   23  A    between atoms: _46  and  _48
REMARK   24  A    between atoms: _48  and  _49
REMARK   25  A    between atoms: _48  and  _51
REMARK   26  A    between atoms: _51  and  _52
REMARK   27  A    between atoms: _52  and  _53
REMARK   28  A    between atoms: _58  and  _60
REMARK   29  A    between atoms: _60  and  _61
REMARK   30  A    between atoms: _60  and  _63
REMARK   31  A    between atoms: _66  and  _68
REMARK   32  A    between atoms: _68  and  _69
REMARK   33  A    between atoms: _68  and  _71
REMARK   34  A    between atoms: _71  and  _72
REMARK   35  A    between atoms: _75  and  _77
REMARK   36  A    between atoms: _77  and  _78
REMARK   37  A    between atoms: _77  and  _80
REMARK   38  A    between atoms: _80  and  _81
REMARK   39  A    between atoms: _86  and  _87
REMARK   40  A    between atoms: _89  and  _91
REMARK   41  A    between atoms: _91  and  _92
REMARK   42  A    between atoms: _91  and  _94
REMARK   43  A    between atoms: _94  and  _95
REMARK   44  A    between atoms: _100  and  _102
REMARK   45  A    between atoms: _102  and  _103
REMARK   46  A    between atoms: _102  and  _105
REMARK   47  A    between atoms: _105  and  _106
REMARK   48  A    between atoms: _111  and  _112
REMARK   49  A    between atoms: _114  and  _116
REMARK   50  A    between atoms: _116  and  _117
REMARK   51  A    between atoms: _119  and  _121
REMARK   52  A    between atoms: _121  and  _122
REMARK   53  A    between atoms: _121  and  _124
REMARK   54  A    between atoms: _124  and  _125
REMARK   55  A    between atoms: _130  and  _131
REMARK   56  A    between atoms: _133  and  _135
REMARK   57  A    between atoms: _135  and  _136
REMARK   58  A    between atoms: _135  and  _138
REMARK   59  A    between atoms: _138  and  _139
REMARK   60  A    between atoms: _139  and  _140
REMARK   61  A    between atoms: _140  and  _141
REMARK   62  A    between atoms: _150  and  _152
REMARK   63  A    between atoms: _152  and  _153
REMARK   64  A    between atoms: _152  and  _155
REMARK   65  A    between atoms: _155  and  _156
REMARK   66  A    between atoms: _156  and  _157
REMARK   67  A    between atoms: _157  and  _158
REMARK   68  A    between atoms: _158  and  _159
REMARK   69  A    between atoms: _163  and  _165
REMARK   70  A    between atoms: _165  and  _166
REMARK   71  A    between atoms: _169  and  _171
REMARK   72  A    between atoms: _171  and  _172
REMARK   73  A    between atoms: _171  and  _174
REMARK   74  A    between atoms: _177  and  _179
REMARK   75  A    between atoms: _179  and  _180
REMARK   76  A    between atoms: _179  and  _182
REMARK   77  A    between atoms: _182  and  _183
REMARK   78  A    between atoms: _188  and  _190
REMARK   79  A    between atoms: _190  and  _191
REMARK   80  A    between atoms: _190  and  _193
REMARK   81  A    between atoms: _196  and  _198
REMARK   82  A    between atoms: _198  and  _199
REMARK   83  A    between atoms: _198  and  _201
REMARK   84  A    between atoms: _201  and  _202
REMARK   85  A    between atoms: _205  and  _206
REMARK   86  A    between atoms: _211  and  _213
REMARK   87  A    between atoms: _213  and  _214
REMARK   88  A    between atoms: _216  and  _218
REMARK   89  A    between atoms: _218  and  _219
REMARK   90  A    between atoms: _222  and  _224
REMARK   91  A    between atoms: _224  and  _225
REMARK   92  A    between atoms: _224  and  _227
REMARK   93  A    between atoms: _227  and  _228
REMARK   94  A    between atoms: _231  and  _233
REMARK   95  A    between atoms: _233  and  _234
REMARK   96  A    between atoms: _237  and  _239
REMARK   97  A    between atoms: _239  and  _240
REMARK   98  A    between atoms: _239  and  _242
REMARK   99  A    between atoms: _242  and  _243
REMARK  100  A    between atoms: _248  and  _249
REMARK  101  A    between atoms: _251  and  _253
REMARK  102  A    between atoms: _253  and  _254
REMARK  103  A    between atoms: _256  and  _258
REMARK  104  A    between atoms: _258  and  _259
REMARK  105  A    between atoms: _262  and  _264
REMARK  106  A    between atoms: _264  and  _265
REMARK  107  A    between atoms: _264  and  _267
REMARK  108  A    between atoms: _267  and  _268
REMARK  109  A    between atoms: _271  and  _273
REMARK  110  A    between atoms: _273  and  _274
REMARK  111  A    between atoms: _276  and  _278
REMARK  112  A    between atoms: _278  and  _279
REMARK  113  A    between atoms: _281  and  _283
REMARK  114  A    between atoms: _283  and  _284
REMARK  115  A    between atoms: _283  and  _286
REMARK  116  A    between atoms: _286  and  _287
REMARK  117  A    between atoms: _293  and  _295
REMARK  118  A    between atoms: _295  and  _296
REMARK  119  A    between atoms: _295  and  _298
REMARK  120  A    between atoms: _298  and  _299
REMARK                            x       y       z     vdW  Elec       q    Type
REMARK                         _______ _______ _______ _____ _____    ______ ____
ROOT
ATOM      1  O   HOH     1      14.135   5.739   6.743  0.00  0.00    +0.000 OA
ENDROOT
TORSDOF 0
