REMARK  Name = ../refined-set-2016/4ua8/4ua8_pocket.pdb
REMARK  240 active torsions:
REMARK  status: ('A' for Active; 'I' for Inactive)
REMARK    1  A    between atoms: _1  and  _3
REMARK    2  A    between atoms: _3  and  _4
REMARK    3  A    between atoms: _7  and  _8
REMARK    4  A    between atoms: _13  and  _15
REMARK    5  A    between atoms: _15  and  _16
REMARK    6  A    between atoms: _19  and  _21
REMARK    7  A    between atoms: _21  and  _22
REMARK    8  A    between atoms: _21  and  _24
REMARK    9  A    between atoms: _24  and  _25
REMARK   10  A    between atoms: _25  and  _26
REMARK   11  A    between atoms: _29  and  _31
REMARK   12  A    between atoms: _31  and  _32
REMARK   13  A    between atoms: _31  and  _34
REMARK   14  A    between atoms: _34  and  _35
REMARK   15  A    between atoms: _38  and  _40
REMARK   16  A    between atoms: _40  and  _41
REMARK   17  A    between atoms: _40  and  _43
REMARK   18  A    between atoms: _43  and  _44
REMARK   19  A    between atoms: _46  and  _48
REMARK   20  A    between atoms: _48  and  _49
REMARK   21  A    between atoms: _48  and  _51
REMARK   22  A    between atoms: _51  and  _52
REMARK   23  A    between atoms: _54  and  _56
REMARK   24  A    between atoms: _56  and  _57
REMARK   25  A    between atoms: _56  and  _59
REMARK   26  A    between atoms: _59  and  _60
REMARK   27  A    between atoms: _60  and  _61
REMARK   28  A    between atoms: _64  and  _66
REMARK   29  A    between atoms: _66  and  _67
REMARK   30  A    between atoms: _66  and  _69
REMARK   31  A    between atoms: _69  and  _70
REMARK   32  A    between atoms: _72  and  _74
REMARK   33  A    between atoms: _74  and  _75
REMARK   34  A    between atoms: _74  and  _77
REMARK   35  A    between atoms: _77  and  _78
REMARK   36  A    between atoms: _81  and  _83
REMARK   37  A    between atoms: _83  and  _84
REMARK   38  A    between atoms: _87  and  _89
REMARK   39  A    between atoms: _89  and  _90
REMARK   40  A    between atoms: _89  and  _92
REMARK   41  A    between atoms: _92  and  _93
REMARK   42  A    between atoms: _93  and  _94
REMARK   43  A    between atoms: _94  and  _95
REMARK   44  A    between atoms: _95  and  _96
REMARK   45  A    between atoms: _100  and  _102
REMARK   46  A    between atoms: _102  and  _103
REMARK   47  A    between atoms: _102  and  _105
REMARK   48  A    between atoms: _105  and  _106
REMARK   49  A    between atoms: _109  and  _111
REMARK   50  A    between atoms: _111  and  _112
REMARK   51  A    between atoms: _111  and  _114
REMARK   52  A    between atoms: _114  and  _115
REMARK   53  A    between atoms: _115  and  _116
REMARK   54  A    between atoms: _118  and  _120
REMARK   55  A    between atoms: _120  and  _121
REMARK   56  A    between atoms: _120  and  _123
REMARK   57  A    between atoms: _123  and  _124
REMARK   58  A    between atoms: _130  and  _132
REMARK   59  A    between atoms: _132  and  _133
REMARK   60  A    between atoms: _136  and  _138
REMARK   61  A    between atoms: _138  and  _139
REMARK   62  A    between atoms: _138  and  _141
REMARK   63  A    between atoms: _141  and  _142
REMARK   64  A    between atoms: _147  and  _149
REMARK   65  A    between atoms: _149  and  _150
REMARK   66  A    between atoms: _149  and  _152
REMARK   67  A    between atoms: _152  and  _153
REMARK   68  A    between atoms: _156  and  _158
REMARK   69  A    between atoms: _158  and  _159
REMARK   70  A    between atoms: _158  and  _161
REMARK   71  A    between atoms: _161  and  _162
REMARK   72  A    between atoms: _162  and  _163
REMARK   73  A    between atoms: _168  and  _170
REMARK   74  A    between atoms: _170  and  _171
REMARK   75  A    between atoms: _170  and  _173
REMARK   76  A    between atoms: _173  and  _174
REMARK   77  A    between atoms: _178  and  _179
REMARK   78  A    between atoms: _184  and  _186
REMARK   79  A    between atoms: _186  and  _187
REMARK   80  A    between atoms: _186  and  _189
REMARK   81  A    between atoms: _189  and  _190
REMARK   82  A    between atoms: _195  and  _196
REMARK   83  A    between atoms: _198  and  _200
REMARK   84  A    between atoms: _200  and  _201
REMARK   85  A    between atoms: _200  and  _203
REMARK   86  A    between atoms: _203  and  _204
REMARK   87  A    between atoms: _207  and  _209
REMARK   88  A    between atoms: _209  and  _210
REMARK   89  A    between atoms: _209  and  _212
REMARK   90  A    between atoms: _212  and  _213
REMARK   91  A    between atoms: _215  and  _217
REMARK   92  A    between atoms: _217  and  _218
REMARK   93  A    between atoms: _217  and  _220
REMARK   94  A    between atoms: _220  and  _221
REMARK   95  A    between atoms: _226  and  _228
REMARK   96  A    between atoms: _228  and  _229
REMARK   97  A    between atoms: _228  and  _231
REMARK   98  A    between atoms: _231  and  _232
REMARK   99  A    between atoms: _235  and  _237
REMARK  100  A    between atoms: _237  and  _238
REMARK  101  A    between atoms: _237  and  _240
REMARK  102  A    between atoms: _240  and  _241
REMARK  103  A    between atoms: _252  and  _253
REMARK  104  A    between atoms: _258  and  _260
REMARK  105  A    between atoms: _260  and  _261
REMARK  106  A    between atoms: _260  and  _263
REMARK  107  A    between atoms: _263  and  _264
REMARK  108  A    between atoms: _267  and  _269
REMARK  109  A    between atoms: _269  and  _270
REMARK  110  A    between atoms: _269  and  _272
REMARK  111  A    between atoms: _272  and  _273
REMARK  112  A    between atoms: _278  and  _280
REMARK  113  A    between atoms: _280  and  _281
REMARK  114  A    between atoms: _283  and  _285
REMARK  115  A    between atoms: _285  and  _286
REMARK  116  A    between atoms: _285  and  _288
REMARK  117  A    between atoms: _288  and  _289
REMARK  118  A    between atoms: _299  and  _301
REMARK  119  A    between atoms: _301  and  _302
REMARK  120  A    between atoms: _301  and  _304
REMARK  121  A    between atoms: _304  and  _305
REMARK  122  A    between atoms: _310  and  _311
REMARK  123  A    between atoms: _313  and  _315
REMARK  124  A    between atoms: _315  and  _316
REMARK  125  A    between atoms: _315  and  _318
REMARK  126  A    between atoms: _318  and  _319
REMARK  127  A    between atoms: _322  and  _324
REMARK  128  A    between atoms: _324  and  _325
REMARK  129  A    between atoms: _324  and  _327
REMARK  130  A    between atoms: _327  and  _328
REMARK  131  A    between atoms: _333  and  _335
REMARK  132  A    between atoms: _335  and  _336
REMARK  133  A    between atoms: _335  and  _338
REMARK  134  A    between atoms: _338  and  _339
REMARK  135  A    between atoms: _344  and  _346
REMARK  136  A    between atoms: _346  and  _347
REMARK  137  A    between atoms: _346  and  _349
REMARK  138  A    between atoms: _349  and  _350
REMARK  139  A    between atoms: _350  and  _351
REMARK  140  A    between atoms: _354  and  _356
REMARK  141  A    between atoms: _356  and  _357
REMARK  142  A    between atoms: _359  and  _361
REMARK  143  A    between atoms: _361  and  _362
REMARK  144  A    between atoms: _361  and  _364
REMARK  145  A    between atoms: _364  and  _365
REMARK  146  A    between atoms: _367  and  _369
REMARK  147  A    between atoms: _369  and  _370
REMARK  148  A    between atoms: _369  and  _372
REMARK  149  A    between atoms: _372  and  _373
REMARK  150  A    between atoms: _378  and  _379
REMARK  151  A    between atoms: _381  and  _383
REMARK  152  A    between atoms: _383  and  _384
REMARK  153  A    between atoms: _383  and  _386
REMARK  154  A    between atoms: _386  and  _387
REMARK  155  A    between atoms: _392  and  _394
REMARK  156  A    between atoms: _394  and  _395
REMARK  157  A    between atoms: _397  and  _399
REMARK  158  A    between atoms: _399  and  _400
REMARK  159  A    between atoms: _399  and  _402
REMARK  160  A    between atoms: _402  and  _403
REMARK  161  A    between atoms: _408  and  _410
REMARK  162  A    between atoms: _410  and  _411
REMARK  163  A    between atoms: _410  and  _413
REMARK  164  A    between atoms: _413  and  _414
REMARK  165  A    between atoms: _424  and  _426
REMARK  166  A    between atoms: _426  and  _427
REMARK  167  A    between atoms: _426  and  _429
REMARK  168  A    between atoms: _429  and  _430
REMARK  169  A    between atoms: _435  and  _437
REMARK  170  A    between atoms: _437  and  _438
REMARK  171  A    between atoms: _437  and  _440
REMARK  172  A    between atoms: _440  and  _441
REMARK  173  A    between atoms: _441  and  _442
REMARK  174  A    between atoms: _442  and  _443
REMARK  175  A    between atoms: _443  and  _444
REMARK  176  A    between atoms: _448  and  _450
REMARK  177  A    between atoms: _450  and  _451
REMARK  178  A    between atoms: _450  and  _453
REMARK  179  A    between atoms: _453  and  _454
REMARK  180  A    between atoms: _460  and  _462
REMARK  181  A    between atoms: _462  and  _463
REMARK  182  A    between atoms: _465  and  _467
REMARK  183  A    between atoms: _467  and  _468
REMARK  184  A    between atoms: _467  and  _470
REMARK  185  A    between atoms: _470  and  _471
REMARK  186  A    between atoms: _473  and  _475
REMARK  187  A    between atoms: _475  and  _476
REMARK  188  A    between atoms: _475  and  _478
REMARK  189  A    between atoms: _478  and  _479
REMARK  190  A    between atoms: _479  and  _480
REMARK  191  A    between atoms: _480  and  _481
REMARK  192  A    between atoms: _481  and  _482
REMARK  193  A    between atoms: _486  and  _488
REMARK  194  A    between atoms: _488  and  _489
REMARK  195  A    between atoms: _488  and  _491
REMARK  196  A    between atoms: _491  and  _492
REMARK  197  A    between atoms: _497  and  _499
REMARK  198  A    between atoms: _499  and  _500
REMARK  199  A    between atoms: _499  and  _502
REMARK  200  A    between atoms: _502  and  _503
REMARK  201  A    between atoms: _503  and  _504
REMARK  202  A    between atoms: _504  and  _505
REMARK  203  A    between atoms: _514  and  _516
REMARK  204  A    between atoms: _516  and  _517
REMARK  205  A    between atoms: _516  and  _519
REMARK  206  A    between atoms: _519  and  _520
REMARK  207  A    between atoms: _520  and  _521
REMARK  208  A    between atoms: _526  and  _528
REMARK  209  A    between atoms: _528  and  _529
REMARK  210  A    between atoms: _528  and  _531
REMARK  211  A    between atoms: _531  and  _532
REMARK  212  A    between atoms: _532  and  _533
REMARK  213  A    between atoms: _538  and  _540
REMARK  214  A    between atoms: _540  and  _541
REMARK  215  A    between atoms: _540  and  _543
REMARK  216  A    between atoms: _543  and  _544
REMARK  217  A    between atoms: _544  and  _545
REMARK  218  A    between atoms: _547  and  _549
REMARK  219  A    between atoms: _549  and  _550
REMARK  220  A    between atoms: _549  and  _552
REMARK  221  A    between atoms: _552  and  _553
REMARK  222  A    between atoms: _555  and  _557
REMARK  223  A    between atoms: _557  and  _558
REMARK  224  A    between atoms: _557  and  _560
REMARK  225  A    between atoms: _560  and  _561
REMARK  226  A    between atoms: _566  and  _567
REMARK  227  A    between atoms: _569  and  _571
REMARK  228  A    between atoms: _571  and  _572
REMARK  229  A    between atoms: _571  and  _574
REMARK  230  A    between atoms: _574  and  _575
REMARK  231  A    between atoms: _585  and  _587
REMARK  232  A    between atoms: _587  and  _588
REMARK  233  A    between atoms: _587  and  _590
REMARK  234  A    between atoms: _590  and  _591
REMARK  235  A    between atoms: _594  and  _596
REMARK  236  A    between atoms: _596  and  _597
REMARK  237  A    between atoms: _600  and  _602
REMARK  238  A    between atoms: _602  and  _603
REMARK  239  A    between atoms: _602  and  _605
REMARK  240  A    between atoms: _605  and  _606
REMARK                            x       y       z     vdW  Elec       q    Type
REMARK                         _______ _______ _______ _____ _____    ______ ____
ROOT
ATOM      1  C   ALA A   3     -41.701   9.926  -9.361  0.00  0.00    +0.241 C 
ATOM      2  N   GLU A   4     -41.233   9.563  -8.177  0.00  0.00    -0.297 N 
ATOM      3  H   GLU A   4     -40.209   9.436  -8.049  0.00  0.00    +0.150 HD
ATOM      4  O   ALA A   3     -42.901  10.131  -9.562  0.00  0.00    -0.273 OA
ENDROOT
BRANCH   1   5
ATOM      5  CA  ALA A   3     -40.691  10.055 -10.494  0.00  0.00    +0.149 C 
ATOM      6  CB  ALA A   3     -40.377   8.697 -11.057  0.00  0.00    +0.031 C 
BRANCH   5   9
ATOM      7  C   PRO A   2     -39.452  11.843  -9.424  0.00  0.00    +0.241 C 
ATOM      8  O   PRO A   2     -40.468  12.441  -9.094  0.00  0.00    -0.273 OA
ATOM      9  N   ALA A   3     -39.459  10.695 -10.083  0.00  0.00    -0.297 N 
ATOM     10  H   ALA A   3     -38.553  10.239 -10.312  0.00  0.00    +0.150 HD
BRANCH   7  16
ATOM     11  C   GLY A   1     -38.177  14.664  -9.843  0.00  0.00    +0.243 C 
ATOM     12  N   PRO A   2     -38.063  13.813  -8.826  0.00  0.00    -0.272 N 
ATOM     13  CD  PRO A   2     -37.738  14.125  -7.422  0.00  0.00    +0.094 C 
ATOM     14  CG  PRO A   2     -37.937  12.830  -6.732  0.00  0.00    +0.024 C 
ATOM     15  CB  PRO A   2     -37.570  11.793  -7.763  0.00  0.00    +0.031 C 
ATOM     16  CA  PRO A   2     -38.074  12.372  -9.078  0.00  0.00    +0.152 C 
ATOM     17  O   GLY A   1     -38.444  14.310 -10.999  0.00  0.00    -0.273 OA
BRANCH  11  18
ATOM     18  CA  GLY A   1     -37.930  16.121  -9.549  0.00  0.00    +0.170 C 
BRANCH  18  19
ATOM     19  N   GLY A   1     -38.045  16.947 -10.734  0.00  0.00    -0.236 NA
ATOM     20  H   GLY A   1     -38.534  16.556 -11.564  0.00  0.00    +0.142 HD
ENDBRANCH  18  19
ENDBRANCH  11  18
ENDBRANCH   7  16
ENDBRANCH   5   9
ENDBRANCH   1   5
BRANCH   2  21
ATOM     21  CA  GLU A   4     -42.132   9.337  -7.045  0.00  0.00    +0.149 C 
BRANCH  21  22
ATOM     22  C   GLU A   4     -42.914  10.579  -6.635  0.00  0.00    +0.241 C 
ATOM     23  O   GLU A   4     -44.017  10.472  -6.125  0.00  0.00    -0.273 OA
ATOM     24  N   ASP A   5     -42.337  11.751  -6.867  0.00  0.00    -0.298 N 
ATOM     25  H   ASP A   5     -41.389  11.767  -7.294  0.00  0.00    +0.150 HD
BRANCH  24  26
ATOM     26  CA  ASP A   5     -42.980  13.008  -6.547  0.00  0.00    +0.148 C 
BRANCH  26  27
ATOM     27  C   ASP A   5     -43.927  13.450  -7.653  0.00  0.00    +0.227 C 
ATOM     28  O   ASP A   5     -44.636  14.440  -7.483  0.00  0.00    -0.286 OA
ENDBRANCH  26  27
BRANCH  26  29
ATOM     29  CB  ASP A   5     -41.926  14.093  -6.286  0.00  0.00    +0.142 C 
BRANCH  29  30
ATOM     30  CG  ASP A   5     -41.255  13.940  -4.926  0.00  0.00    +0.367 C 
ATOM     31  OD2 ASP A   5     -41.890  13.404  -3.992  0.00  0.00    -0.246 OA
ATOM     32  OD1 ASP A   5     -40.079  14.364  -4.817  0.00  0.00    -0.246 OA
ENDBRANCH  29  30
ENDBRANCH  26  29
ENDBRANCH  24  26
ENDBRANCH  21  22
BRANCH  21  33
ATOM     33  CB  GLU A   4     -41.334   8.818  -5.856  0.00  0.00    +0.041 C 
BRANCH  33  34
ATOM     34  CG  GLU A   4     -40.713   7.437  -6.073  0.00  0.00    +0.116 C 
BRANCH  34  35
ATOM     35  CD  GLU A   4     -39.339   7.436  -6.712  0.00  0.00    +0.365 C 
ATOM     36  OE2 GLU A   4     -38.768   6.312  -6.776  0.00  0.00    -0.246 OA
ATOM     37  OE1 GLU A   4     -38.801   8.493  -7.138  0.00  0.00    -0.246 OA
ENDBRANCH  34  35
ENDBRANCH  33  34
ENDBRANCH  21  33
ENDBRANCH   2  21
TORSDOF 14
REMARK  Name = ../refined-set-2016/4ua8/4ua8_pocket.pdb
REMARK  240 active torsions:
REMARK  status: ('A' for Active; 'I' for Inactive)
REMARK    1  A    between atoms: _1  and  _3
REMARK    2  A    between atoms: _3  and  _4
REMARK    3  A    between atoms: _7  and  _8
REMARK    4  A    between atoms: _13  and  _15
REMARK    5  A    between atoms: _15  and  _16
REMARK    6  A    between atoms: _19  and  _21
REMARK    7  A    between atoms: _21  and  _22
REMARK    8  A    between atoms: _21  and  _24
REMARK    9  A    between atoms: _24  and  _25
REMARK   10  A    between atoms: _25  and  _26
REMARK   11  A    between atoms: _29  and  _31
REMARK   12  A    between atoms: _31  and  _32
REMARK   13  A    between atoms: _31  and  _34
REMARK   14  A    between atoms: _34  and  _35
REMARK   15  A    between atoms: _38  and  _40
REMARK   16  A    between atoms: _40  and  _41
REMARK   17  A    between atoms: _40  and  _43
REMARK   18  A    between atoms: _43  and  _44
REMARK   19  A    between atoms: _46  and  _48
REMARK   20  A    between atoms: _48  and  _49
REMARK   21  A    between atoms: _48  and  _51
REMARK   22  A    between atoms: _51  and  _52
REMARK   23  A    between atoms: _54  and  _56
REMARK   24  A    between atoms: _56  and  _57
REMARK   25  A    between atoms: _56  and  _59
REMARK   26  A    between atoms: _59  and  _60
REMARK   27  A    between atoms: _60  and  _61
REMARK   28  A    between atoms: _64  and  _66
REMARK   29  A    between atoms: _66  and  _67
REMARK   30  A    between atoms: _66  and  _69
REMARK   31  A    between atoms: _69  and  _70
REMARK   32  A    between atoms: _72  and  _74
REMARK   33  A    between atoms: _74  and  _75
REMARK   34  A    between atoms: _74  and  _77
REMARK   35  A    between atoms: _77  and  _78
REMARK   36  A    between atoms: _81  and  _83
REMARK   37  A    between atoms: _83  and  _84
REMARK   38  A    between atoms: _87  and  _89
REMARK   39  A    between atoms: _89  and  _90
REMARK   40  A    between atoms: _89  and  _92
REMARK   41  A    between atoms: _92  and  _93
REMARK   42  A    between atoms: _93  and  _94
REMARK   43  A    between atoms: _94  and  _95
REMARK   44  A    between atoms: _95  and  _96
REMARK   45  A    between atoms: _100  and  _102
REMARK   46  A    between atoms: _102  and  _103
REMARK   47  A    between atoms: _102  and  _105
REMARK   48  A    between atoms: _105  and  _106
REMARK   49  A    between atoms: _109  and  _111
REMARK   50  A    between atoms: _111  and  _112
REMARK   51  A    between atoms: _111  and  _114
REMARK   52  A    between atoms: _114  and  _115
REMARK   53  A    between atoms: _115  and  _116
REMARK   54  A    between atoms: _118  and  _120
REMARK   55  A    between atoms: _120  and  _121
REMARK   56  A    between atoms: _120  and  _123
REMARK   57  A    between atoms: _123  and  _124
REMARK   58  A    between atoms: _130  and  _132
REMARK   59  A    between atoms: _132  and  _133
REMARK   60  A    between atoms: _136  and  _138
REMARK   61  A    between atoms: _138  and  _139
REMARK   62  A    between atoms: _138  and  _141
REMARK   63  A    between atoms: _141  and  _142
REMARK   64  A    between atoms: _147  and  _149
REMARK   65  A    between atoms: _149  and  _150
REMARK   66  A    between atoms: _149  and  _152
REMARK   67  A    between atoms: _152  and  _153
REMARK   68  A    between atoms: _156  and  _158
REMARK   69  A    between atoms: _158  and  _159
REMARK   70  A    between atoms: _158  and  _161
REMARK   71  A    between atoms: _161  and  _162
REMARK   72  A    between atoms: _162  and  _163
REMARK   73  A    between atoms: _168  and  _170
REMARK   74  A    between atoms: _170  and  _171
REMARK   75  A    between atoms: _170  and  _173
REMARK   76  A    between atoms: _173  and  _174
REMARK   77  A    between atoms: _178  and  _179
REMARK   78  A    between atoms: _184  and  _186
REMARK   79  A    between atoms: _186  and  _187
REMARK   80  A    between atoms: _186  and  _189
REMARK   81  A    between atoms: _189  and  _190
REMARK   82  A    between atoms: _195  and  _196
REMARK   83  A    between atoms: _198  and  _200
REMARK   84  A    between atoms: _200  and  _201
REMARK   85  A    between atoms: _200  and  _203
REMARK   86  A    between atoms: _203  and  _204
REMARK   87  A    between atoms: _207  and  _209
REMARK   88  A    between atoms: _209  and  _210
REMARK   89  A    between atoms: _209  and  _212
REMARK   90  A    between atoms: _212  and  _213
REMARK   91  A    between atoms: _215  and  _217
REMARK   92  A    between atoms: _217  and  _218
REMARK   93  A    between atoms: _217  and  _220
REMARK   94  A    between atoms: _220  and  _221
REMARK   95  A    between atoms: _226  and  _228
REMARK   96  A    between atoms: _228  and  _229
REMARK   97  A    between atoms: _228  and  _231
REMARK   98  A    between atoms: _231  and  _232
REMARK   99  A    between atoms: _235  and  _237
REMARK  100  A    between atoms: _237  and  _238
REMARK  101  A    between atoms: _237  and  _240
REMARK  102  A    between atoms: _240  and  _241
REMARK  103  A    between atoms: _252  and  _253
REMARK  104  A    between atoms: _258  and  _260
REMARK  105  A    between atoms: _260  and  _261
REMARK  106  A    between atoms: _260  and  _263
REMARK  107  A    between atoms: _263  and  _264
REMARK  108  A    between atoms: _267  and  _269
REMARK  109  A    between atoms: _269  and  _270
REMARK  110  A    between atoms: _269  and  _272
REMARK  111  A    between atoms: _272  and  _273
REMARK  112  A    between atoms: _278  and  _280
REMARK  113  A    between atoms: _280  and  _281
REMARK  114  A    between atoms: _283  and  _285
REMARK  115  A    between atoms: _285  and  _286
REMARK  116  A    between atoms: _285  and  _288
REMARK  117  A    between atoms: _288  and  _289
REMARK  118  A    between atoms: _299  and  _301
REMARK  119  A    between atoms: _301  and  _302
REMARK  120  A    between atoms: _301  and  _304
REMARK  121  A    between atoms: _304  and  _305
REMARK  122  A    between atoms: _310  and  _311
REMARK  123  A    between atoms: _313  and  _315
REMARK  124  A    between atoms: _315  and  _316
REMARK  125  A    between atoms: _315  and  _318
REMARK  126  A    between atoms: _318  and  _319
REMARK  127  A    between atoms: _322  and  _324
REMARK  128  A    between atoms: _324  and  _325
REMARK  129  A    between atoms: _324  and  _327
REMARK  130  A    between atoms: _327  and  _328
REMARK  131  A    between atoms: _333  and  _335
REMARK  132  A    between atoms: _335  and  _336
REMARK  133  A    between atoms: _335  and  _338
REMARK  134  A    between atoms: _338  and  _339
REMARK  135  A    between atoms: _344  and  _346
REMARK  136  A    between atoms: _346  and  _347
REMARK  137  A    between atoms: _346  and  _349
REMARK  138  A    between atoms: _349  and  _350
REMARK  139  A    between atoms: _350  and  _351
REMARK  140  A    between atoms: _354  and  _356
REMARK  141  A    between atoms: _356  and  _357
REMARK  142  A    between atoms: _359  and  _361
REMARK  143  A    between atoms: _361  and  _362
REMARK  144  A    between atoms: _361  and  _364
REMARK  145  A    between atoms: _364  and  _365
REMARK  146  A    between atoms: _367  and  _369
REMARK  147  A    between atoms: _369  and  _370
REMARK  148  A    between atoms: _369  and  _372
REMARK  149  A    between atoms: _372  and  _373
REMARK  150  A    between atoms: _378  and  _379
REMARK  151  A    between atoms: _381  and  _383
REMARK  152  A    between atoms: _383  and  _384
REMARK  153  A    between atoms: _383  and  _386
REMARK  154  A    between atoms: _386  and  _387
REMARK  155  A    between atoms: _392  and  _394
REMARK  156  A    between atoms: _394  and  _395
REMARK  157  A    between atoms: _397  and  _399
REMARK  158  A    between atoms: _399  and  _400
REMARK  159  A    between atoms: _399  and  _402
REMARK  160  A    between atoms: _402  and  _403
REMARK  161  A    between atoms: _408  and  _410
REMARK  162  A    between atoms: _410  and  _411
REMARK  163  A    between atoms: _410  and  _413
REMARK  164  A    between atoms: _413  and  _414
REMARK  165  A    between atoms: _424  and  _426
REMARK  166  A    between atoms: _426  and  _427
REMARK  167  A    between atoms: _426  and  _429
REMARK  168  A    between atoms: _429  and  _430
REMARK  169  A    between atoms: _435  and  _437
REMARK  170  A    between atoms: _437  and  _438
REMARK  171  A    between atoms: _437  and  _440
REMARK  172  A    between atoms: _440  and  _441
REMARK  173  A    between atoms: _441  and  _442
REMARK  174  A    between atoms: _442  and  _443
REMARK  175  A    between atoms: _443  and  _444
REMARK  176  A    between atoms: _448  and  _450
REMARK  177  A    between atoms: _450  and  _451
REMARK  178  A    between atoms: _450  and  _453
REMARK  179  A    between atoms: _453  and  _454
REMARK  180  A    between atoms: _460  and  _462
REMARK  181  A    between atoms: _462  and  _463
REMARK  182  A    between atoms: _465  and  _467
REMARK  183  A    between atoms: _467  and  _468
REMARK  184  A    between atoms: _467  and  _470
REMARK  185  A    between atoms: _470  and  _471
REMARK  186  A    between atoms: _473  and  _475
REMARK  187  A    between atoms: _475  and  _476
REMARK  188  A    between atoms: _475  and  _478
REMARK  189  A    between atoms: _478  and  _479
REMARK  190  A    between atoms: _479  and  _480
REMARK  191  A    between atoms: _480  and  _481
REMARK  192  A    between atoms: _481  and  _482
REMARK  193  A    between atoms: _486  and  _488
REMARK  194  A    between atoms: _488  and  _489
REMARK  195  A    between atoms: _488  and  _491
REMARK  196  A    between atoms: _491  and  _492
REMARK  197  A    between atoms: _497  and  _499
REMARK  198  A    between atoms: _499  and  _500
REMARK  199  A    between atoms: _499  and  _502
REMARK  200  A    between atoms: _502  and  _503
REMARK  201  A    between atoms: _503  and  _504
REMARK  202  A    between atoms: _504  and  _505
REMARK  203  A    between atoms: _514  and  _516
REMARK  204  A    between atoms: _516  and  _517
REMARK  205  A    between atoms: _516  and  _519
REMARK  206  A    between atoms: _519  and  _520
REMARK  207  A    between atoms: _520  and  _521
REMARK  208  A    between atoms: _526  and  _528
REMARK  209  A    between atoms: _528  and  _529
REMARK  210  A    between atoms: _528  and  _531
REMARK  211  A    between atoms: _531  and  _532
REMARK  212  A    between atoms: _532  and  _533
REMARK  213  A    between atoms: _538  and  _540
REMARK  214  A    between atoms: _540  and  _541
REMARK  215  A    between atoms: _540  and  _543
REMARK  216  A    between atoms: _543  and  _544
REMARK  217  A    between atoms: _544  and  _545
REMARK  218  A    between atoms: _547  and  _549
REMARK  219  A    between atoms: _549  and  _550
REMARK  220  A    between atoms: _549  and  _552
REMARK  221  A    between atoms: _552  and  _553
REMARK  222  A    between atoms: _555  and  _557
REMARK  223  A    between atoms: _557  and  _558
REMARK  224  A    between atoms: _557  and  _560
REMARK  225  A    between atoms: _560  and  _561
REMARK  226  A    between atoms: _566  and  _567
REMARK  227  A    between atoms: _569  and  _571
REMARK  228  A    between atoms: _571  and  _572
REMARK  229  A    between atoms: _571  and  _574
REMARK  230  A    between atoms: _574  and  _575
REMARK  231  A    between atoms: _585  and  _587
REMARK  232  A    between atoms: _587  and  _588
REMARK  233  A    between atoms: _587  and  _590
REMARK  234  A    between atoms: _590  and  _591
REMARK  235  A    between atoms: _594  and  _596
REMARK  236  A    between atoms: _596  and  _597
REMARK  237  A    between atoms: _600  and  _602
REMARK  238  A    between atoms: _602  and  _603
REMARK  239  A    between atoms: _602  and  _605
REMARK  240  A    between atoms: _605  and  _606
REMARK                            x       y       z     vdW  Elec       q    Type
REMARK                         _______ _______ _______ _____ _____    ______ ____
ROOT
ATOM      1  C   SER A   4     -28.359  11.985  -9.045  0.00  0.00    +0.243 C 
ATOM      2  O   SER A   4     -27.134  11.982  -9.146  0.00  0.00    -0.273 OA
ATOM      3  N   ASP A   5     -29.180  12.317 -10.040  0.00  0.00    -0.296 N 
ATOM      4  H   ASP A   5     -30.200  12.372  -9.844  0.00  0.00    +0.150 HD
ENDROOT
BRANCH   3   5
ATOM      5  CA  ASP A   5     -28.715  12.608 -11.394  0.00  0.00    +0.160 C 
BRANCH   5   6
ATOM      6  C   ASP A   5     -28.692  14.087 -11.759  0.00  0.00    +0.241 C 
ATOM      7  N   ALA A   6     -29.014  14.986 -10.824  0.00  0.00    -0.297 N 
ATOM      8  H   ALA A   6     -29.144  14.690  -9.835  0.00  0.00    +0.150 HD
ATOM      9  O   ASP A   5     -28.370  14.437 -12.894  0.00  0.00    -0.273 OA
BRANCH   7  10
ATOM     10  CA  ALA A   6     -29.183  16.390 -11.201  0.00  0.00    +0.149 C 
ATOM     11  CB  ALA A   6     -29.784  17.149 -10.018  0.00  0.00    +0.031 C 
BRANCH  10  12
ATOM     12  C   ALA A   6     -27.905  17.069 -11.668  0.00  0.00    +0.241 C 
ATOM     13  N   LYS A   7     -26.750  16.713 -11.136  0.00  0.00    -0.297 N 
ATOM     14  H   LYS A   7     -26.722  16.010 -10.370  0.00  0.00    +0.150 HD
ATOM     15  O   ALA A   6     -27.957  17.927 -12.553  0.00  0.00    -0.273 OA
BRANCH  13  16
ATOM     16  CA  LYS A   7     -25.509  17.313 -11.630  0.00  0.00    +0.149 C 
BRANCH  16  17
ATOM     17  C   LYS A   7     -25.382  17.074 -13.119  0.00  0.00    +0.241 C 
ATOM     18  N   ASP A   8     -25.522  15.815 -13.516  0.00  0.00    -0.298 N 
ATOM     19  H   ASP A   8     -25.790  15.084 -12.827  0.00  0.00    +0.150 HD
ATOM     20  O   LYS A   7     -25.148  18.012 -13.895  0.00  0.00    -0.273 OA
BRANCH  18  21
ATOM     21  CA  ASP A   8     -25.305  15.451 -14.897  0.00  0.00    +0.148 C 
BRANCH  21  22
ATOM     22  C   ASP A   8     -26.329  16.127 -15.811  0.00  0.00    +0.227 C 
ATOM     23  O   ASP A   8     -25.987  16.677 -16.863  0.00  0.00    -0.286 OA
ENDBRANCH  21  22
BRANCH  21  24
ATOM     24  CB  ASP A   8     -25.385  13.932 -15.032  0.00  0.00    +0.142 C 
BRANCH  24  25
ATOM     25  CG  ASP A   8     -24.383  13.223 -14.137  0.00  0.00    +0.367 C 
ATOM     26  OD2 ASP A   8     -24.736  12.181 -13.557  0.00  0.00    -0.246 OA
ATOM     27  OD1 ASP A   8     -23.239  13.720 -14.015  0.00  0.00    -0.246 OA
ENDBRANCH  24  25
ENDBRANCH  21  24
ENDBRANCH  18  21
ENDBRANCH  16  17
BRANCH  16  28
ATOM     28  CB  LYS A   7     -24.249  16.766 -10.940  0.00  0.00    +0.029 C 
BRANCH  28  29
ATOM     29  CG  LYS A   7     -22.934  17.344 -11.522  0.00  0.00    +0.000 C 
BRANCH  29  30
ATOM     30  CD  LYS A   7     -21.706  16.765 -10.832  0.00  0.00    -0.024 C 
BRANCH  30  31
ATOM     31  CE  LYS A   7     -21.134  15.602 -11.588  0.00  0.00    -0.086 C 
BRANCH  31  32
ATOM     32  NZ  LYS A   7     -19.678  15.402 -11.222  0.00  0.00    +0.380 N 
ATOM     33  HZ1 LYS A   7     -19.601  15.216 -10.202  0.00  0.00    -0.089 HD
ATOM     34  HZ2 LYS A   7     -19.141  16.260 -11.461  0.00  0.00    -0.089 HD
ATOM     35  HZ3 LYS A   7     -19.296  14.594 -11.753  0.00  0.00    -0.089 HD
ENDBRANCH  31  32
ENDBRANCH  30  31
ENDBRANCH  29  30
ENDBRANCH  28  29
ENDBRANCH  16  28
ENDBRANCH  13  16
ENDBRANCH  10  12
ENDBRANCH   7  10
ENDBRANCH   5   6
BRANCH   5  36
ATOM     36  CB  ASP A   5     -29.605  11.872 -12.400  0.00  0.00    +0.143 C 
BRANCH  36  37
ATOM     37  CG  ASP A   5     -29.497  10.355 -12.294  0.00  0.00    +0.367 C 
ATOM     38  OD2 ASP A   5     -28.371   9.843 -12.095  0.00  0.00    -0.246 OA
ATOM     39  OD1 ASP A   5     -30.522   9.648 -12.445  0.00  0.00    -0.246 OA
ENDBRANCH  36  37
ENDBRANCH   5  36
ENDBRANCH   3   5
BRANCH   1  40
ATOM     40  CA  SER A   4     -29.019  11.660  -7.713  0.00  0.00    +0.178 C 
BRANCH  40  43
ATOM     41  C   GLU A   3     -30.559  13.521  -7.538  0.00  0.00    +0.241 C 
ATOM     42  O   GLU A   3     -29.632  14.320  -7.548  0.00  0.00    -0.273 OA
ATOM     43  N   SER A   4     -30.360  12.214  -7.602  0.00  0.00    -0.295 N 
ATOM     44  H   SER A   4     -31.177  11.571  -7.572  0.00  0.00    +0.150 HD
BRANCH  41  45
ATOM     45  CA  GLU A   3     -32.012  14.010  -7.388  0.00  0.00    +0.149 C 
BRANCH  45  47
ATOM     46  C   SER A   2     -32.842  12.730  -9.246  0.00  0.00    +0.243 C 
ATOM     47  N   GLU A   3     -32.967  13.088  -7.973  0.00  0.00    -0.297 N 
ATOM     48  H   GLU A   3     -33.746  12.709  -7.398  0.00  0.00    +0.150 HD
ATOM     49  O   SER A   2     -31.985  13.202  -9.981  0.00  0.00    -0.273 OA
BRANCH  46  50
ATOM     50  CA  SER A   2     -33.758  11.625  -9.729  0.00  0.00    +0.178 C 
BRANCH  50  53
ATOM     51  C   SER A   1     -34.932  12.867 -11.430  0.00  0.00    +0.241 C 
ATOM     52  O   SER A   1     -35.382  13.629 -10.657  0.00  0.00    -0.274 OA
ATOM     53  N   SER A   2     -34.167  11.849 -11.109  0.00  0.00    -0.295 N 
ATOM     54  H   SER A   2     -33.849  11.193 -11.851  0.00  0.00    +0.150 HD
BRANCH  51  55
ATOM     55  CA  SER A   1     -35.283  12.981 -12.894  0.00  0.00    +0.174 C 
BRANCH  55  56
ATOM     56  N   SER A   1     -36.694  13.300 -13.056  0.00  0.00    -0.236 NA
ATOM     57  H   SER A   1     -37.230  13.647 -12.235  0.00  0.00    +0.142 HD
ENDBRANCH  55  56
BRANCH  55  58
ATOM     58  CB  SER A   1     -34.436  14.069 -13.534  0.00  0.00    +0.163 C 
BRANCH  58  59
ATOM     59  OG  SER A   1     -33.089  13.792 -13.611  0.00  0.00    -0.380 OA
ATOM     60  H   SER A   1     -32.952  12.973 -14.150  0.00  0.00    +0.211 HD
ENDBRANCH  58  59
ENDBRANCH  55  58
ENDBRANCH  51  55
ENDBRANCH  50  53
BRANCH  50  61
ATOM     61  CB  SER A   2     -32.997  10.304  -9.617  0.00  0.00    +0.166 C 
BRANCH  61  62
ATOM     62  OG  SER A   2     -32.436  10.129  -8.322  0.00  0.00    -0.380 OA
ATOM     63  H   SER A   2     -33.160  10.131  -7.647  0.00  0.00    +0.211 HD
ENDBRANCH  61  62
ENDBRANCH  50  61
ENDBRANCH  46  50
ENDBRANCH  45  47
BRANCH  45  64
ATOM     64  CB  GLU A   3     -32.326  14.214  -5.892  0.00  0.00    +0.041 C 
BRANCH  64  65
ATOM     65  CG  GLU A   3     -33.724  14.752  -5.595  0.00  0.00    +0.116 C 
BRANCH  65  66
ATOM     66  CD  GLU A   3     -34.703  13.652  -5.182  0.00  0.00    +0.365 C 
ATOM     67  OE2 GLU A   3     -35.488  13.853  -4.217  0.00  0.00    -0.246 OA
ATOM     68  OE1 GLU A   3     -34.679  12.602  -5.830  0.00  0.00    -0.246 OA
ENDBRANCH  65  66
ENDBRANCH  64  65
ENDBRANCH  45  64
ENDBRANCH  41  45
ENDBRANCH  40  43
BRANCH  40  69
ATOM     69  CB  SER A   4     -29.047  10.144  -7.519  0.00  0.00    +0.166 C 
BRANCH  69  70
ATOM     70  OG  SER A   4     -29.597   9.494  -8.643  0.00  0.00    -0.380 OA
ATOM     71  H   SER A   4     -30.524   9.811  -8.785  0.00  0.00    +0.211 HD
ENDBRANCH  69  70
ENDBRANCH  40  69
ENDBRANCH   1  40
TORSDOF 34
REMARK  Name = ../refined-set-2016/4ua8/4ua8_pocket.pdb
REMARK  240 active torsions:
REMARK  status: ('A' for Active; 'I' for Inactive)
REMARK    1  A    between atoms: _1  and  _3
REMARK    2  A    between atoms: _3  and  _4
REMARK    3  A    between atoms: _7  and  _8
REMARK    4  A    between atoms: _13  and  _15
REMARK    5  A    between atoms: _15  and  _16
REMARK    6  A    between atoms: _19  and  _21
REMARK    7  A    between atoms: _21  and  _22
REMARK    8  A    between atoms: _21  and  _24
REMARK    9  A    between atoms: _24  and  _25
REMARK   10  A    between atoms: _25  and  _26
REMARK   11  A    between atoms: _29  and  _31
REMARK   12  A    between atoms: _31  and  _32
REMARK   13  A    between atoms: _31  and  _34
REMARK   14  A    between atoms: _34  and  _35
REMARK   15  A    between atoms: _38  and  _40
REMARK   16  A    between atoms: _40  and  _41
REMARK   17  A    between atoms: _40  and  _43
REMARK   18  A    between atoms: _43  and  _44
REMARK   19  A    between atoms: _46  and  _48
REMARK   20  A    between atoms: _48  and  _49
REMARK   21  A    between atoms: _48  and  _51
REMARK   22  A    between atoms: _51  and  _52
REMARK   23  A    between atoms: _54  and  _56
REMARK   24  A    between atoms: _56  and  _57
REMARK   25  A    between atoms: _56  and  _59
REMARK   26  A    between atoms: _59  and  _60
REMARK   27  A    between atoms: _60  and  _61
REMARK   28  A    between atoms: _64  and  _66
REMARK   29  A    between atoms: _66  and  _67
REMARK   30  A    between atoms: _66  and  _69
REMARK   31  A    between atoms: _69  and  _70
REMARK   32  A    between atoms: _72  and  _74
REMARK   33  A    between atoms: _74  and  _75
REMARK   34  A    between atoms: _74  and  _77
REMARK   35  A    between atoms: _77  and  _78
REMARK   36  A    between atoms: _81  and  _83
REMARK   37  A    between atoms: _83  and  _84
REMARK   38  A    between atoms: _87  and  _89
REMARK   39  A    between atoms: _89  and  _90
REMARK   40  A    between atoms: _89  and  _92
REMARK   41  A    between atoms: _92  and  _93
REMARK   42  A    between atoms: _93  and  _94
REMARK   43  A    between atoms: _94  and  _95
REMARK   44  A    between atoms: _95  and  _96
REMARK   45  A    between atoms: _100  and  _102
REMARK   46  A    between atoms: _102  and  _103
REMARK   47  A    between atoms: _102  and  _105
REMARK   48  A    between atoms: _105  and  _106
REMARK   49  A    between atoms: _109  and  _111
REMARK   50  A    between atoms: _111  and  _112
REMARK   51  A    between atoms: _111  and  _114
REMARK   52  A    between atoms: _114  and  _115
REMARK   53  A    between atoms: _115  and  _116
REMARK   54  A    between atoms: _118  and  _120
REMARK   55  A    between atoms: _120  and  _121
REMARK   56  A    between atoms: _120  and  _123
REMARK   57  A    between atoms: _123  and  _124
REMARK   58  A    between atoms: _130  and  _132
REMARK   59  A    between atoms: _132  and  _133
REMARK   60  A    between atoms: _136  and  _138
REMARK   61  A    between atoms: _138  and  _139
REMARK   62  A    between atoms: _138  and  _141
REMARK   63  A    between atoms: _141  and  _142
REMARK   64  A    between atoms: _147  and  _149
REMARK   65  A    between atoms: _149  and  _150
REMARK   66  A    between atoms: _149  and  _152
REMARK   67  A    between atoms: _152  and  _153
REMARK   68  A    between atoms: _156  and  _158
REMARK   69  A    between atoms: _158  and  _159
REMARK   70  A    between atoms: _158  and  _161
REMARK   71  A    between atoms: _161  and  _162
REMARK   72  A    between atoms: _162  and  _163
REMARK   73  A    between atoms: _168  and  _170
REMARK   74  A    between atoms: _170  and  _171
REMARK   75  A    between atoms: _170  and  _173
REMARK   76  A    between atoms: _173  and  _174
REMARK   77  A    between atoms: _178  and  _179
REMARK   78  A    between atoms: _184  and  _186
REMARK   79  A    between atoms: _186  and  _187
REMARK   80  A    between atoms: _186  and  _189
REMARK   81  A    between atoms: _189  and  _190
REMARK   82  A    between atoms: _195  and  _196
REMARK   83  A    between atoms: _198  and  _200
REMARK   84  A    between atoms: _200  and  _201
REMARK   85  A    between atoms: _200  and  _203
REMARK   86  A    between atoms: _203  and  _204
REMARK   87  A    between atoms: _207  and  _209
REMARK   88  A    between atoms: _209  and  _210
REMARK   89  A    between atoms: _209  and  _212
REMARK   90  A    between atoms: _212  and  _213
REMARK   91  A    between atoms: _215  and  _217
REMARK   92  A    between atoms: _217  and  _218
REMARK   93  A    between atoms: _217  and  _220
REMARK   94  A    between atoms: _220  and  _221
REMARK   95  A    between atoms: _226  and  _228
REMARK   96  A    between atoms: _228  and  _229
REMARK   97  A    between atoms: _228  and  _231
REMARK   98  A    between atoms: _231  and  _232
REMARK   99  A    between atoms: _235  and  _237
REMARK  100  A    between atoms: _237  and  _238
REMARK  101  A    between atoms: _237  and  _240
REMARK  102  A    between atoms: _240  and  _241
REMARK  103  A    between atoms: _252  and  _253
REMARK  104  A    between atoms: _258  and  _260
REMARK  105  A    between atoms: _260  and  _261
REMARK  106  A    between atoms: _260  and  _263
REMARK  107  A    between atoms: _263  and  _264
REMARK  108  A    between atoms: _267  and  _269
REMARK  109  A    between atoms: _269  and  _270
REMARK  110  A    between atoms: _269  and  _272
REMARK  111  A    between atoms: _272  and  _273
REMARK  112  A    between atoms: _278  and  _280
REMARK  113  A    between atoms: _280  and  _281
REMARK  114  A    between atoms: _283  and  _285
REMARK  115  A    between atoms: _285  and  _286
REMARK  116  A    between atoms: _285  and  _288
REMARK  117  A    between atoms: _288  and  _289
REMARK  118  A    between atoms: _299  and  _301
REMARK  119  A    between atoms: _301  and  _302
REMARK  120  A    between atoms: _301  and  _304
REMARK  121  A    between atoms: _304  and  _305
REMARK  122  A    between atoms: _310  and  _311
REMARK  123  A    between atoms: _313  and  _315
REMARK  124  A    between atoms: _315  and  _316
REMARK  125  A    between atoms: _315  and  _318
REMARK  126  A    between atoms: _318  and  _319
REMARK  127  A    between atoms: _322  and  _324
REMARK  128  A    between atoms: _324  and  _325
REMARK  129  A    between atoms: _324  and  _327
REMARK  130  A    between atoms: _327  and  _328
REMARK  131  A    between atoms: _333  and  _335
REMARK  132  A    between atoms: _335  and  _336
REMARK  133  A    between atoms: _335  and  _338
REMARK  134  A    between atoms: _338  and  _339
REMARK  135  A    between atoms: _344  and  _346
REMARK  136  A    between atoms: _346  and  _347
REMARK  137  A    between atoms: _346  and  _349
REMARK  138  A    between atoms: _349  and  _350
REMARK  139  A    between atoms: _350  and  _351
REMARK  140  A    between atoms: _354  and  _356
REMARK  141  A    between atoms: _356  and  _357
REMARK  142  A    between atoms: _359  and  _361
REMARK  143  A    between atoms: _361  and  _362
REMARK  144  A    between atoms: _361  and  _364
REMARK  145  A    between atoms: _364  and  _365
REMARK  146  A    between atoms: _367  and  _369
REMARK  147  A    between atoms: _369  and  _370
REMARK  148  A    between atoms: _369  and  _372
REMARK  149  A    between atoms: _372  and  _373
REMARK  150  A    between atoms: _378  and  _379
REMARK  151  A    between atoms: _381  and  _383
REMARK  152  A    between atoms: _383  and  _384
REMARK  153  A    between atoms: _383  and  _386
REMARK  154  A    between atoms: _386  and  _387
REMARK  155  A    between atoms: _392  and  _394
REMARK  156  A    between atoms: _394  and  _395
REMARK  157  A    between atoms: _397  and  _399
REMARK  158  A    between atoms: _399  and  _400
REMARK  159  A    between atoms: _399  and  _402
REMARK  160  A    between atoms: _402  and  _403
REMARK  161  A    between atoms: _408  and  _410
REMARK  162  A    between atoms: _410  and  _411
REMARK  163  A    between atoms: _410  and  _413
REMARK  164  A    between atoms: _413  and  _414
REMARK  165  A    between atoms: _424  and  _426
REMARK  166  A    between atoms: _426  and  _427
REMARK  167  A    between atoms: _426  and  _429
REMARK  168  A    between atoms: _429  and  _430
REMARK  169  A    between atoms: _435  and  _437
REMARK  170  A    between atoms: _437  and  _438
REMARK  171  A    between atoms: _437  and  _440
REMARK  172  A    between atoms: _440  and  _441
REMARK  173  A    between atoms: _441  and  _442
REMARK  174  A    between atoms: _442  and  _443
REMARK  175  A    between atoms: _443  and  _444
REMARK  176  A    between atoms: _448  and  _450
REMARK  177  A    between atoms: _450  and  _451
REMARK  178  A    between atoms: _450  and  _453
REMARK  179  A    between atoms: _453  and  _454
REMARK  180  A    between atoms: _460  and  _462
REMARK  181  A    between atoms: _462  and  _463
REMARK  182  A    between atoms: _465  and  _467
REMARK  183  A    between atoms: _467  and  _468
REMARK  184  A    between atoms: _467  and  _470
REMARK  185  A    between atoms: _470  and  _471
REMARK  186  A    between atoms: _473  and  _475
REMARK  187  A    between atoms: _475  and  _476
REMARK  188  A    between atoms: _475  and  _478
REMARK  189  A    between atoms: _478  and  _479
REMARK  190  A    between atoms: _479  and  _480
REMARK  191  A    between atoms: _480  and  _481
REMARK  192  A    between atoms: _481  and  _482
REMARK  193  A    between atoms: _486  and  _488
REMARK  194  A    between atoms: _488  and  _489
REMARK  195  A    between atoms: _488  and  _491
REMARK  196  A    between atoms: _491  and  _492
REMARK  197  A    between atoms: _497  and  _499
REMARK  198  A    between atoms: _499  and  _500
REMARK  199  A    between atoms: _499  and  _502
REMARK  200  A    between atoms: _502  and  _503
REMARK  201  A    between atoms: _503  and  _504
REMARK  202  A    between atoms: _504  and  _505
REMARK  203  A    between atoms: _514  and  _516
REMARK  204  A    between atoms: _516  and  _517
REMARK  205  A    between atoms: _516  and  _519
REMARK  206  A    between atoms: _519  and  _520
REMARK  207  A    between atoms: _520  and  _521
REMARK  208  A    between atoms: _526  and  _528
REMARK  209  A    between atoms: _528  and  _529
REMARK  210  A    between atoms: _528  and  _531
REMARK  211  A    between atoms: _531  and  _532
REMARK  212  A    between atoms: _532  and  _533
REMARK  213  A    between atoms: _538  and  _540
REMARK  214  A    between atoms: _540  and  _541
REMARK  215  A    between atoms: _540  and  _543
REMARK  216  A    between atoms: _543  and  _544
REMARK  217  A    between atoms: _544  and  _545
REMARK  218  A    between atoms: _547  and  _549
REMARK  219  A    between atoms: _549  and  _550
REMARK  220  A    between atoms: _549  and  _552
REMARK  221  A    between atoms: _552  and  _553
REMARK  222  A    between atoms: _555  and  _557
REMARK  223  A    between atoms: _557  and  _558
REMARK  224  A    between atoms: _557  and  _560
REMARK  225  A    between atoms: _560  and  _561
REMARK  226  A    between atoms: _566  and  _567
REMARK  227  A    between atoms: _569  and  _571
REMARK  228  A    between atoms: _571  and  _572
REMARK  229  A    between atoms: _571  and  _574
REMARK  230  A    between atoms: _574  and  _575
REMARK  231  A    between atoms: _585  and  _587
REMARK  232  A    between atoms: _587  and  _588
REMARK  233  A    between atoms: _587  and  _590
REMARK  234  A    between atoms: _590  and  _591
REMARK  235  A    between atoms: _594  and  _596
REMARK  236  A    between atoms: _596  and  _597
REMARK  237  A    between atoms: _600  and  _602
REMARK  238  A    between atoms: _602  and  _603
REMARK  239  A    between atoms: _602  and  _605
REMARK  240  A    between atoms: _605  and  _606
REMARK                            x       y       z     vdW  Elec       q    Type
REMARK                         _______ _______ _______ _____ _____    ______ ____
ROOT
ATOM      1  CA  ASN A   4     -26.363  18.725  -1.939  0.00  0.00    +0.158 C 
ENDROOT
BRANCH   1   2
ATOM      2  C   ASN A   4     -24.903  18.562  -2.287  0.00  0.00    +0.241 C 
ATOM      3  N   ASP A   5     -24.414  17.335  -2.401  0.00  0.00    -0.297 N 
ATOM      4  H   ASP A   5     -25.020  16.515  -2.198  0.00  0.00    +0.150 HD
ATOM      5  O   ASN A   4     -24.209  19.569  -2.443  0.00  0.00    -0.273 OA
BRANCH   3   6
ATOM      6  CA  ASP A   5     -23.021  17.131  -2.812  0.00  0.00    +0.160 C 
BRANCH   6   7
ATOM      7  C   ASP A   5     -22.748  17.616  -4.223  0.00  0.00    +0.241 C 
ATOM      8  O   ASP A   5     -21.593  17.767  -4.642  0.00  0.00    -0.273 OA
ATOM      9  N   GLN A   6     -23.809  17.866  -4.967  0.00  0.00    -0.297 N 
ATOM     10  H   GLN A   6     -24.752  17.659  -4.581  0.00  0.00    +0.150 HD
BRANCH   9  11
ATOM     11  CA  GLN A   6     -23.704  18.426  -6.319  0.00  0.00    +0.149 C 
BRANCH  11  12
ATOM     12  C   GLN A   6     -23.573  19.925  -6.352  0.00  0.00    +0.241 C 
ATOM     13  N   LEU A   7     -23.580  20.560  -5.186  0.00  0.00    -0.298 N 
ATOM     14  H   LEU A   7     -23.574  20.007  -4.305  0.00  0.00    +0.150 HD
ATOM     15  O   GLN A   6     -23.420  20.508  -7.430  0.00  0.00    -0.273 OA
BRANCH  13  16
ATOM     16  CA  LEU A   7     -23.596  22.013  -5.113  0.00  0.00    +0.137 C 
BRANCH  16  17
ATOM     17  C   LEU A   7     -22.406  22.679  -5.787  0.00  0.00    +0.227 C 
ATOM     18  O   LEU A   7     -22.614  23.607  -6.589  0.00  0.00    -0.286 OA
ENDBRANCH  16  17
BRANCH  16  19
ATOM     19  CB  LEU A   7     -23.657  22.444  -3.655  0.00  0.00    +0.028 C 
BRANCH  19  20
ATOM     20  CG  LEU A   7     -23.693  23.956  -3.456  0.00  0.00    +0.002 C 
ATOM     21  CD2 LEU A   7     -23.713  24.250  -1.968  0.00  0.00    +0.000 C 
ATOM     22  CD1 LEU A   7     -24.875  24.584  -4.187  0.00  0.00    +0.000 C 
ENDBRANCH  19  20
ENDBRANCH  16  19
ENDBRANCH  13  16
ENDBRANCH  11  12
BRANCH  11  23
ATOM     23  CB  GLN A   6     -24.940  18.003  -7.122  0.00  0.00    +0.039 C 
BRANCH  23  24
ATOM     24  CG  GLN A   6     -25.087  16.501  -7.236  0.00  0.00    +0.087 C 
BRANCH  24  25
ATOM     25  CD  GLN A   6     -26.507  16.039  -7.427  0.00  0.00    +0.219 C 
ATOM     26  NE2 GLN A   6     -26.718  14.755  -7.379  0.00  0.00    -0.329 N 
ATOM     27 HE21 GLN A   6     -25.919  14.101  -7.251  0.00  0.00    +0.145 HD
ATOM     28 HE22 GLN A   6     -27.685  14.383  -7.469  0.00  0.00    +0.145 HD
ATOM     29  OE1 GLN A   6     -27.434  16.835  -7.578  0.00  0.00    -0.275 OA
ENDBRANCH  24  25
ENDBRANCH  23  24
ENDBRANCH  11  23
ENDBRANCH   9  11
ENDBRANCH   6   7
BRANCH   6  30
ATOM     30  CB  ASP A   5     -22.648  15.658  -2.730  0.00  0.00    +0.143 C 
BRANCH  30  31
ATOM     31  CG  ASP A   5     -23.529  14.792  -3.600  0.00  0.00    +0.367 C 
ATOM     32  OD2 ASP A   5     -24.659  14.498  -3.165  0.00  0.00    -0.246 OA
ATOM     33  OD1 ASP A   5     -23.107  14.461  -4.728  0.00  0.00    -0.246 OA
ENDBRANCH  30  31
ENDBRANCH   6  30
ENDBRANCH   3   6
ENDBRANCH   1   2
BRANCH   1  35
ATOM     34  C   ALA A   3     -27.399  17.167  -3.429  0.00  0.00    +0.241 C 
ATOM     35  N   ASN A   4     -27.211  17.582  -2.180  0.00  0.00    -0.297 N 
ATOM     36  H   ASN A   4     -27.669  17.089  -1.387  0.00  0.00    +0.150 HD
ATOM     37  O   ALA A   3     -26.665  17.536  -4.355  0.00  0.00    -0.273 OA
BRANCH  34  38
ATOM     38  CA  ALA A   3     -28.585  16.238  -3.678  0.00  0.00    +0.149 C 
ATOM     39  CB  ALA A   3     -28.114  14.825  -3.828  0.00  0.00    +0.031 C 
BRANCH  38  42
ATOM     40  C   PHE A   2     -30.401  17.406  -4.850  0.00  0.00    +0.241 C 
ATOM     41  O   PHE A   2     -30.935  17.765  -3.798  0.00  0.00    -0.273 OA
ATOM     42  N   ALA A   3     -29.312  16.655  -4.874  0.00  0.00    -0.297 N 
ATOM     43  H   ALA A   3     -28.953  16.343  -5.799  0.00  0.00    +0.150 HD
BRANCH  40  44
ATOM     44  CA  PHE A   2     -30.954  17.840  -6.225  0.00  0.00    +0.153 C 
BRANCH  44  46
ATOM     45  C   MET A   1     -33.259  18.172  -6.972  0.00  0.00    +0.238 C 
ATOM     46  N   PHE A   2     -32.298  18.400  -6.066  0.00  0.00    -0.297 N 
ATOM     47  H   PHE A   2     -32.511  18.986  -5.234  0.00  0.00    +0.150 HD
ATOM     48  O   MET A   1     -33.113  17.361  -7.895  0.00  0.00    -0.274 OA
BRANCH  45  49
ATOM     49  CA  MET A   1     -34.558  18.962  -6.817  0.00  0.00    +0.146 C 
BRANCH  49  50
ATOM     50  N   MET A   1     -34.848  19.677  -8.050  0.00  0.00    -0.238 NA
ATOM     51  H   MET A   1     -35.274  19.142  -8.834  0.00  0.00    +0.142 HD
ENDBRANCH  49  50
BRANCH  49  52
ATOM     52  CB  MET A   1     -35.730  18.063  -6.464  0.00  0.00    +0.038 C 
BRANCH  52  53
ATOM     53  CG  MET A   1     -37.013  18.802  -6.289  0.00  0.00    +0.060 C 
BRANCH  53  54
ATOM     54  SD  MET A   1     -38.515  17.826  -6.136  0.00  0.00    -0.139 S 
ATOM     55  CE  MET A   1     -38.230  16.984  -4.606  0.00  0.00    +0.069 C 
ENDBRANCH  53  54
ENDBRANCH  52  53
ENDBRANCH  49  52
ENDBRANCH  45  49
ENDBRANCH  44  46
BRANCH  44  56
ATOM     56  CB  PHE A   2     -30.051  18.843  -6.942  0.00  0.00    +0.055 C 
BRANCH  56  57
ATOM     57  CG  PHE A   2     -29.626  20.022  -6.113  0.00  0.00    -0.020 A 
ATOM     58  CD2 PHE A   2     -28.379  20.041  -5.550  0.00  0.00    -0.004 A 
ATOM     59  CE2 PHE A   2     -27.951  21.087  -4.766  0.00  0.00    -0.000 A 
ATOM     60  CZ  PHE A   2     -28.793  22.145  -4.545  0.00  0.00    -0.000 A 
ATOM     61  CE1 PHE A   2     -30.050  22.156  -5.117  0.00  0.00    -0.000 A 
ATOM     62  CD1 PHE A   2     -30.467  21.094  -5.898  0.00  0.00    -0.004 A 
ENDBRANCH  56  57
ENDBRANCH  44  56
ENDBRANCH  40  44
ENDBRANCH  38  42
ENDBRANCH  34  38
ENDBRANCH   1  35
BRANCH   1  63
ATOM     63  CB  ASN A   4     -26.464  19.196  -0.468  0.00  0.00    +0.114 C 
BRANCH  63  64
ATOM     64  CG  ASN A   4     -25.590  18.391   0.465  0.00  0.00    +0.222 C 
ATOM     65  ND2 ASN A   4     -24.576  19.042   1.019  0.00  0.00    -0.329 N 
ATOM     66 HD21 ASN A   4     -23.928  18.544   1.662  0.00  0.00    +0.145 HD
ATOM     67 HD22 ASN A   4     -24.429  20.050   0.811  0.00  0.00    +0.145 HD
ATOM     68  OD1 ASN A   4     -25.811  17.195   0.677  0.00  0.00    -0.275 OA
ENDBRANCH  63  64
ENDBRANCH   1  63
TORSDOF 28
REMARK  Name = ../refined-set-2016/4ua8/4ua8_pocket.pdb
REMARK  240 active torsions:
REMARK  status: ('A' for Active; 'I' for Inactive)
REMARK    1  A    between atoms: _1  and  _3
REMARK    2  A    between atoms: _3  and  _4
REMARK    3  A    between atoms: _7  and  _8
REMARK    4  A    between atoms: _13  and  _15
REMARK    5  A    between atoms: _15  and  _16
REMARK    6  A    between atoms: _19  and  _21
REMARK    7  A    between atoms: _21  and  _22
REMARK    8  A    between atoms: _21  and  _24
REMARK    9  A    between atoms: _24  and  _25
REMARK   10  A    between atoms: _25  and  _26
REMARK   11  A    between atoms: _29  and  _31
REMARK   12  A    between atoms: _31  and  _32
REMARK   13  A    between atoms: _31  and  _34
REMARK   14  A    between atoms: _34  and  _35
REMARK   15  A    between atoms: _38  and  _40
REMARK   16  A    between atoms: _40  and  _41
REMARK   17  A    between atoms: _40  and  _43
REMARK   18  A    between atoms: _43  and  _44
REMARK   19  A    between atoms: _46  and  _48
REMARK   20  A    between atoms: _48  and  _49
REMARK   21  A    between atoms: _48  and  _51
REMARK   22  A    between atoms: _51  and  _52
REMARK   23  A    between atoms: _54  and  _56
REMARK   24  A    between atoms: _56  and  _57
REMARK   25  A    between atoms: _56  and  _59
REMARK   26  A    between atoms: _59  and  _60
REMARK   27  A    between atoms: _60  and  _61
REMARK   28  A    between atoms: _64  and  _66
REMARK   29  A    between atoms: _66  and  _67
REMARK   30  A    between atoms: _66  and  _69
REMARK   31  A    between atoms: _69  and  _70
REMARK   32  A    between atoms: _72  and  _74
REMARK   33  A    between atoms: _74  and  _75
REMARK   34  A    between atoms: _74  and  _77
REMARK   35  A    between atoms: _77  and  _78
REMARK   36  A    between atoms: _81  and  _83
REMARK   37  A    between atoms: _83  and  _84
REMARK   38  A    between atoms: _87  and  _89
REMARK   39  A    between atoms: _89  and  _90
REMARK   40  A    between atoms: _89  and  _92
REMARK   41  A    between atoms: _92  and  _93
REMARK   42  A    between atoms: _93  and  _94
REMARK   43  A    between atoms: _94  and  _95
REMARK   44  A    between atoms: _95  and  _96
REMARK   45  A    between atoms: _100  and  _102
REMARK   46  A    between atoms: _102  and  _103
REMARK   47  A    between atoms: _102  and  _105
REMARK   48  A    between atoms: _105  and  _106
REMARK   49  A    between atoms: _109  and  _111
REMARK   50  A    between atoms: _111  and  _112
REMARK   51  A    between atoms: _111  and  _114
REMARK   52  A    between atoms: _114  and  _115
REMARK   53  A    between atoms: _115  and  _116
REMARK   54  A    between atoms: _118  and  _120
REMARK   55  A    between atoms: _120  and  _121
REMARK   56  A    between atoms: _120  and  _123
REMARK   57  A    between atoms: _123  and  _124
REMARK   58  A    between atoms: _130  and  _132
REMARK   59  A    between atoms: _132  and  _133
REMARK   60  A    between atoms: _136  and  _138
REMARK   61  A    between atoms: _138  and  _139
REMARK   62  A    between atoms: _138  and  _141
REMARK   63  A    between atoms: _141  and  _142
REMARK   64  A    between atoms: _147  and  _149
REMARK   65  A    between atoms: _149  and  _150
REMARK   66  A    between atoms: _149  and  _152
REMARK   67  A    between atoms: _152  and  _153
REMARK   68  A    between atoms: _156  and  _158
REMARK   69  A    between atoms: _158  and  _159
REMARK   70  A    between atoms: _158  and  _161
REMARK   71  A    between atoms: _161  and  _162
REMARK   72  A    between atoms: _162  and  _163
REMARK   73  A    between atoms: _168  and  _170
REMARK   74  A    between atoms: _170  and  _171
REMARK   75  A    between atoms: _170  and  _173
REMARK   76  A    between atoms: _173  and  _174
REMARK   77  A    between atoms: _178  and  _179
REMARK   78  A    between atoms: _184  and  _186
REMARK   79  A    between atoms: _186  and  _187
REMARK   80  A    between atoms: _186  and  _189
REMARK   81  A    between atoms: _189  and  _190
REMARK   82  A    between atoms: _195  and  _196
REMARK   83  A    between atoms: _198  and  _200
REMARK   84  A    between atoms: _200  and  _201
REMARK   85  A    between atoms: _200  and  _203
REMARK   86  A    between atoms: _203  and  _204
REMARK   87  A    between atoms: _207  and  _209
REMARK   88  A    between atoms: _209  and  _210
REMARK   89  A    between atoms: _209  and  _212
REMARK   90  A    between atoms: _212  and  _213
REMARK   91  A    between atoms: _215  and  _217
REMARK   92  A    between atoms: _217  and  _218
REMARK   93  A    between atoms: _217  and  _220
REMARK   94  A    between atoms: _220  and  _221
REMARK   95  A    between atoms: _226  and  _228
REMARK   96  A    between atoms: _228  and  _229
REMARK   97  A    between atoms: _228  and  _231
REMARK   98  A    between atoms: _231  and  _232
REMARK   99  A    between atoms: _235  and  _237
REMARK  100  A    between atoms: _237  and  _238
REMARK  101  A    between atoms: _237  and  _240
REMARK  102  A    between atoms: _240  and  _241
REMARK  103  A    between atoms: _252  and  _253
REMARK  104  A    between atoms: _258  and  _260
REMARK  105  A    between atoms: _260  and  _261
REMARK  106  A    between atoms: _260  and  _263
REMARK  107  A    between atoms: _263  and  _264
REMARK  108  A    between atoms: _267  and  _269
REMARK  109  A    between atoms: _269  and  _270
REMARK  110  A    between atoms: _269  and  _272
REMARK  111  A    between atoms: _272  and  _273
REMARK  112  A    between atoms: _278  and  _280
REMARK  113  A    between atoms: _280  and  _281
REMARK  114  A    between atoms: _283  and  _285
REMARK  115  A    between atoms: _285  and  _286
REMARK  116  A    between atoms: _285  and  _288
REMARK  117  A    between atoms: _288  and  _289
REMARK  118  A    between atoms: _299  and  _301
REMARK  119  A    between atoms: _301  and  _302
REMARK  120  A    between atoms: _301  and  _304
REMARK  121  A    between atoms: _304  and  _305
REMARK  122  A    between atoms: _310  and  _311
REMARK  123  A    between atoms: _313  and  _315
REMARK  124  A    between atoms: _315  and  _316
REMARK  125  A    between atoms: _315  and  _318
REMARK  126  A    between atoms: _318  and  _319
REMARK  127  A    between atoms: _322  and  _324
REMARK  128  A    between atoms: _324  and  _325
REMARK  129  A    between atoms: _324  and  _327
REMARK  130  A    between atoms: _327  and  _328
REMARK  131  A    between atoms: _333  and  _335
REMARK  132  A    between atoms: _335  and  _336
REMARK  133  A    between atoms: _335  and  _338
REMARK  134  A    between atoms: _338  and  _339
REMARK  135  A    between atoms: _344  and  _346
REMARK  136  A    between atoms: _346  and  _347
REMARK  137  A    between atoms: _346  and  _349
REMARK  138  A    between atoms: _349  and  _350
REMARK  139  A    between atoms: _350  and  _351
REMARK  140  A    between atoms: _354  and  _356
REMARK  141  A    between atoms: _356  and  _357
REMARK  142  A    between atoms: _359  and  _361
REMARK  143  A    between atoms: _361  and  _362
REMARK  144  A    between atoms: _361  and  _364
REMARK  145  A    between atoms: _364  and  _365
REMARK  146  A    between atoms: _367  and  _369
REMARK  147  A    between atoms: _369  and  _370
REMARK  148  A    between atoms: _369  and  _372
REMARK  149  A    between atoms: _372  and  _373
REMARK  150  A    between atoms: _378  and  _379
REMARK  151  A    between atoms: _381  and  _383
REMARK  152  A    between atoms: _383  and  _384
REMARK  153  A    between atoms: _383  and  _386
REMARK  154  A    between atoms: _386  and  _387
REMARK  155  A    between atoms: _392  and  _394
REMARK  156  A    between atoms: _394  and  _395
REMARK  157  A    between atoms: _397  and  _399
REMARK  158  A    between atoms: _399  and  _400
REMARK  159  A    between atoms: _399  and  _402
REMARK  160  A    between atoms: _402  and  _403
REMARK  161  A    between atoms: _408  and  _410
REMARK  162  A    between atoms: _410  and  _411
REMARK  163  A    between atoms: _410  and  _413
REMARK  164  A    between atoms: _413  and  _414
REMARK  165  A    between atoms: _424  and  _426
REMARK  166  A    between atoms: _426  and  _427
REMARK  167  A    between atoms: _426  and  _429
REMARK  168  A    between atoms: _429  and  _430
REMARK  169  A    between atoms: _435  and  _437
REMARK  170  A    between atoms: _437  and  _438
REMARK  171  A    between atoms: _437  and  _440
REMARK  172  A    between atoms: _440  and  _441
REMARK  173  A    between atoms: _441  and  _442
REMARK  174  A    between atoms: _442  and  _443
REMARK  175  A    between atoms: _443  and  _444
REMARK  176  A    between atoms: _448  and  _450
REMARK  177  A    between atoms: _450  and  _451
REMARK  178  A    between atoms: _450  and  _453
REMARK  179  A    between atoms: _453  and  _454
REMARK  180  A    between atoms: _460  and  _462
REMARK  181  A    between atoms: _462  and  _463
REMARK  182  A    between atoms: _465  and  _467
REMARK  183  A    between atoms: _467  and  _468
REMARK  184  A    between atoms: _467  and  _470
REMARK  185  A    between atoms: _470  and  _471
REMARK  186  A    between atoms: _473  and  _475
REMARK  187  A    between atoms: _475  and  _476
REMARK  188  A    between atoms: _475  and  _478
REMARK  189  A    between atoms: _478  and  _479
REMARK  190  A    between atoms: _479  and  _480
REMARK  191  A    between atoms: _480  and  _481
REMARK  192  A    between atoms: _481  and  _482
REMARK  193  A    between atoms: _486  and  _488
REMARK  194  A    between atoms: _488  and  _489
REMARK  195  A    between atoms: _488  and  _491
REMARK  196  A    between atoms: _491  and  _492
REMARK  197  A    between atoms: _497  and  _499
REMARK  198  A    between atoms: _499  and  _500
REMARK  199  A    between atoms: _499  and  _502
REMARK  200  A    between atoms: _502  and  _503
REMARK  201  A    between atoms: _503  and  _504
REMARK  202  A    between atoms: _504  and  _505
REMARK  203  A    between atoms: _514  and  _516
REMARK  204  A    between atoms: _516  and  _517
REMARK  205  A    between atoms: _516  and  _519
REMARK  206  A    between atoms: _519  and  _520
REMARK  207  A    between atoms: _520  and  _521
REMARK  208  A    between atoms: _526  and  _528
REMARK  209  A    between atoms: _528  and  _529
REMARK  210  A    between atoms: _528  and  _531
REMARK  211  A    between atoms: _531  and  _532
REMARK  212  A    between atoms: _532  and  _533
REMARK  213  A    between atoms: _538  and  _540
REMARK  214  A    between atoms: _540  and  _541
REMARK  215  A    between atoms: _540  and  _543
REMARK  216  A    between atoms: _543  and  _544
REMARK  217  A    between atoms: _544  and  _545
REMARK  218  A    between atoms: _547  and  _549
REMARK  219  A    between atoms: _549  and  _550
REMARK  220  A    between atoms: _549  and  _552
REMARK  221  A    between atoms: _552  and  _553
REMARK  222  A    between atoms: _555  and  _557
REMARK  223  A    between atoms: _557  and  _558
REMARK  224  A    between atoms: _557  and  _560
REMARK  225  A    between atoms: _560  and  _561
REMARK  226  A    between atoms: _566  and  _567
REMARK  227  A    between atoms: _569  and  _571
REMARK  228  A    between atoms: _571  and  _572
REMARK  229  A    between atoms: _571  and  _574
REMARK  230  A    between atoms: _574  and  _575
REMARK  231  A    between atoms: _585  and  _587
REMARK  232  A    between atoms: _587  and  _588
REMARK  233  A    between atoms: _587  and  _590
REMARK  234  A    between atoms: _590  and  _591
REMARK  235  A    between atoms: _594  and  _596
REMARK  236  A    between atoms: _596  and  _597
REMARK  237  A    between atoms: _600  and  _602
REMARK  238  A    between atoms: _602  and  _603
REMARK  239  A    between atoms: _602  and  _605
REMARK  240  A    between atoms: _605  and  _606
REMARK                            x       y       z     vdW  Elec       q    Type
REMARK                         _______ _______ _______ _____ _____    ______ ____
ROOT
ATOM      1  N   PRO A   1     -20.224  21.662  -8.180  0.00  0.00    -0.212 NA
ATOM      2  CD  PRO A   1     -20.110  20.313  -7.609  0.00  0.00    +0.089 C 
ATOM      3  CG  PRO A   1     -20.461  19.434  -8.755  0.00  0.00    +0.021 C 
ATOM      4  CB  PRO A   1     -20.323  20.167 -10.017  0.00  0.00    +0.027 C 
ATOM      5  CA  PRO A   1     -20.240  21.656  -9.652  0.00  0.00    +0.137 C 
ENDROOT
BRANCH   5   6
ATOM      6  C   PRO A   1     -21.404  22.452 -10.242  0.00  0.00    +0.224 C 
ATOM      7  O   PRO A   1     -21.262  23.043 -11.308  0.00  0.00    -0.287 OA
ENDBRANCH   5   6
TORSDOF 1
REMARK  Name = ../refined-set-2016/4ua8/4ua8_pocket.pdb
REMARK  240 active torsions:
REMARK  status: ('A' for Active; 'I' for Inactive)
REMARK    1  A    between atoms: _1  and  _3
REMARK    2  A    between atoms: _3  and  _4
REMARK    3  A    between atoms: _7  and  _8
REMARK    4  A    between atoms: _13  and  _15
REMARK    5  A    between atoms: _15  and  _16
REMARK    6  A    between atoms: _19  and  _21
REMARK    7  A    between atoms: _21  and  _22
REMARK    8  A    between atoms: _21  and  _24
REMARK    9  A    between atoms: _24  and  _25
REMARK   10  A    between atoms: _25  and  _26
REMARK   11  A    between atoms: _29  and  _31
REMARK   12  A    between atoms: _31  and  _32
REMARK   13  A    between atoms: _31  and  _34
REMARK   14  A    between atoms: _34  and  _35
REMARK   15  A    between atoms: _38  and  _40
REMARK   16  A    between atoms: _40  and  _41
REMARK   17  A    between atoms: _40  and  _43
REMARK   18  A    between atoms: _43  and  _44
REMARK   19  A    between atoms: _46  and  _48
REMARK   20  A    between atoms: _48  and  _49
REMARK   21  A    between atoms: _48  and  _51
REMARK   22  A    between atoms: _51  and  _52
REMARK   23  A    between atoms: _54  and  _56
REMARK   24  A    between atoms: _56  and  _57
REMARK   25  A    between atoms: _56  and  _59
REMARK   26  A    between atoms: _59  and  _60
REMARK   27  A    between atoms: _60  and  _61
REMARK   28  A    between atoms: _64  and  _66
REMARK   29  A    between atoms: _66  and  _67
REMARK   30  A    between atoms: _66  and  _69
REMARK   31  A    between atoms: _69  and  _70
REMARK   32  A    between atoms: _72  and  _74
REMARK   33  A    between atoms: _74  and  _75
REMARK   34  A    between atoms: _74  and  _77
REMARK   35  A    between atoms: _77  and  _78
REMARK   36  A    between atoms: _81  and  _83
REMARK   37  A    between atoms: _83  and  _84
REMARK   38  A    between atoms: _87  and  _89
REMARK   39  A    between atoms: _89  and  _90
REMARK   40  A    between atoms: _89  and  _92
REMARK   41  A    between atoms: _92  and  _93
REMARK   42  A    between atoms: _93  and  _94
REMARK   43  A    between atoms: _94  and  _95
REMARK   44  A    between atoms: _95  and  _96
REMARK   45  A    between atoms: _100  and  _102
REMARK   46  A    between atoms: _102  and  _103
REMARK   47  A    between atoms: _102  and  _105
REMARK   48  A    between atoms: _105  and  _106
REMARK   49  A    between atoms: _109  and  _111
REMARK   50  A    between atoms: _111  and  _112
REMARK   51  A    between atoms: _111  and  _114
REMARK   52  A    between atoms: _114  and  _115
REMARK   53  A    between atoms: _115  and  _116
REMARK   54  A    between atoms: _118  and  _120
REMARK   55  A    between atoms: _120  and  _121
REMARK   56  A    between atoms: _120  and  _123
REMARK   57  A    between atoms: _123  and  _124
REMARK   58  A    between atoms: _130  and  _132
REMARK   59  A    between atoms: _132  and  _133
REMARK   60  A    between atoms: _136  and  _138
REMARK   61  A    between atoms: _138  and  _139
REMARK   62  A    between atoms: _138  and  _141
REMARK   63  A    between atoms: _141  and  _142
REMARK   64  A    between atoms: _147  and  _149
REMARK   65  A    between atoms: _149  and  _150
REMARK   66  A    between atoms: _149  and  _152
REMARK   67  A    between atoms: _152  and  _153
REMARK   68  A    between atoms: _156  and  _158
REMARK   69  A    between atoms: _158  and  _159
REMARK   70  A    between atoms: _158  and  _161
REMARK   71  A    between atoms: _161  and  _162
REMARK   72  A    between atoms: _162  and  _163
REMARK   73  A    between atoms: _168  and  _170
REMARK   74  A    between atoms: _170  and  _171
REMARK   75  A    between atoms: _170  and  _173
REMARK   76  A    between atoms: _173  and  _174
REMARK   77  A    between atoms: _178  and  _179
REMARK   78  A    between atoms: _184  and  _186
REMARK   79  A    between atoms: _186  and  _187
REMARK   80  A    between atoms: _186  and  _189
REMARK   81  A    between atoms: _189  and  _190
REMARK   82  A    between atoms: _195  and  _196
REMARK   83  A    between atoms: _198  and  _200
REMARK   84  A    between atoms: _200  and  _201
REMARK   85  A    between atoms: _200  and  _203
REMARK   86  A    between atoms: _203  and  _204
REMARK   87  A    between atoms: _207  and  _209
REMARK   88  A    between atoms: _209  and  _210
REMARK   89  A    between atoms: _209  and  _212
REMARK   90  A    between atoms: _212  and  _213
REMARK   91  A    between atoms: _215  and  _217
REMARK   92  A    between atoms: _217  and  _218
REMARK   93  A    between atoms: _217  and  _220
REMARK   94  A    between atoms: _220  and  _221
REMARK   95  A    between atoms: _226  and  _228
REMARK   96  A    between atoms: _228  and  _229
REMARK   97  A    between atoms: _228  and  _231
REMARK   98  A    between atoms: _231  and  _232
REMARK   99  A    between atoms: _235  and  _237
REMARK  100  A    between atoms: _237  and  _238
REMARK  101  A    between atoms: _237  and  _240
REMARK  102  A    between atoms: _240  and  _241
REMARK  103  A    between atoms: _252  and  _253
REMARK  104  A    between atoms: _258  and  _260
REMARK  105  A    between atoms: _260  and  _261
REMARK  106  A    between atoms: _260  and  _263
REMARK  107  A    between atoms: _263  and  _264
REMARK  108  A    between atoms: _267  and  _269
REMARK  109  A    between atoms: _269  and  _270
REMARK  110  A    between atoms: _269  and  _272
REMARK  111  A    between atoms: _272  and  _273
REMARK  112  A    between atoms: _278  and  _280
REMARK  113  A    between atoms: _280  and  _281
REMARK  114  A    between atoms: _283  and  _285
REMARK  115  A    between atoms: _285  and  _286
REMARK  116  A    between atoms: _285  and  _288
REMARK  117  A    between atoms: _288  and  _289
REMARK  118  A    between atoms: _299  and  _301
REMARK  119  A    between atoms: _301  and  _302
REMARK  120  A    between atoms: _301  and  _304
REMARK  121  A    between atoms: _304  and  _305
REMARK  122  A    between atoms: _310  and  _311
REMARK  123  A    between atoms: _313  and  _315
REMARK  124  A    between atoms: _315  and  _316
REMARK  125  A    between atoms: _315  and  _318
REMARK  126  A    between atoms: _318  and  _319
REMARK  127  A    between atoms: _322  and  _324
REMARK  128  A    between atoms: _324  and  _325
REMARK  129  A    between atoms: _324  and  _327
REMARK  130  A    between atoms: _327  and  _328
REMARK  131  A    between atoms: _333  and  _335
REMARK  132  A    between atoms: _335  and  _336
REMARK  133  A    between atoms: _335  and  _338
REMARK  134  A    between atoms: _338  and  _339
REMARK  135  A    between atoms: _344  and  _346
REMARK  136  A    between atoms: _346  and  _347
REMARK  137  A    between atoms: _346  and  _349
REMARK  138  A    between atoms: _349  and  _350
REMARK  139  A    between atoms: _350  and  _351
REMARK  140  A    between atoms: _354  and  _356
REMARK  141  A    between atoms: _356  and  _357
REMARK  142  A    between atoms: _359  and  _361
REMARK  143  A    between atoms: _361  and  _362
REMARK  144  A    between atoms: _361  and  _364
REMARK  145  A    between atoms: _364  and  _365
REMARK  146  A    between atoms: _367  and  _369
REMARK  147  A    between atoms: _369  and  _370
REMARK  148  A    between atoms: _369  and  _372
REMARK  149  A    between atoms: _372  and  _373
REMARK  150  A    between atoms: _378  and  _379
REMARK  151  A    between atoms: _381  and  _383
REMARK  152  A    between atoms: _383  and  _384
REMARK  153  A    between atoms: _383  and  _386
REMARK  154  A    between atoms: _386  and  _387
REMARK  155  A    between atoms: _392  and  _394
REMARK  156  A    between atoms: _394  and  _395
REMARK  157  A    between atoms: _397  and  _399
REMARK  158  A    between atoms: _399  and  _400
REMARK  159  A    between atoms: _399  and  _402
REMARK  160  A    between atoms: _402  and  _403
REMARK  161  A    between atoms: _408  and  _410
REMARK  162  A    between atoms: _410  and  _411
REMARK  163  A    between atoms: _410  and  _413
REMARK  164  A    between atoms: _413  and  _414
REMARK  165  A    between atoms: _424  and  _426
REMARK  166  A    between atoms: _426  and  _427
REMARK  167  A    between atoms: _426  and  _429
REMARK  168  A    between atoms: _429  and  _430
REMARK  169  A    between atoms: _435  and  _437
REMARK  170  A    between atoms: _437  and  _438
REMARK  171  A    between atoms: _437  and  _440
REMARK  172  A    between atoms: _440  and  _441
REMARK  173  A    between atoms: _441  and  _442
REMARK  174  A    between atoms: _442  and  _443
REMARK  175  A    between atoms: _443  and  _444
REMARK  176  A    between atoms: _448  and  _450
REMARK  177  A    between atoms: _450  and  _451
REMARK  178  A    between atoms: _450  and  _453
REMARK  179  A    between atoms: _453  and  _454
REMARK  180  A    between atoms: _460  and  _462
REMARK  181  A    between atoms: _462  and  _463
REMARK  182  A    between atoms: _465  and  _467
REMARK  183  A    between atoms: _467  and  _468
REMARK  184  A    between atoms: _467  and  _470
REMARK  185  A    between atoms: _470  and  _471
REMARK  186  A    between atoms: _473  and  _475
REMARK  187  A    between atoms: _475  and  _476
REMARK  188  A    between atoms: _475  and  _478
REMARK  189  A    between atoms: _478  and  _479
REMARK  190  A    between atoms: _479  and  _480
REMARK  191  A    between atoms: _480  and  _481
REMARK  192  A    between atoms: _481  and  _482
REMARK  193  A    between atoms: _486  and  _488
REMARK  194  A    between atoms: _488  and  _489
REMARK  195  A    between atoms: _488  and  _491
REMARK  196  A    between atoms: _491  and  _492
REMARK  197  A    between atoms: _497  and  _499
REMARK  198  A    between atoms: _499  and  _500
REMARK  199  A    between atoms: _499  and  _502
REMARK  200  A    between atoms: _502  and  _503
REMARK  201  A    between atoms: _503  and  _504
REMARK  202  A    between atoms: _504  and  _505
REMARK  203  A    between atoms: _514  and  _516
REMARK  204  A    between atoms: _516  and  _517
REMARK  205  A    between atoms: _516  and  _519
REMARK  206  A    between atoms: _519  and  _520
REMARK  207  A    between atoms: _520  and  _521
REMARK  208  A    between atoms: _526  and  _528
REMARK  209  A    between atoms: _528  and  _529
REMARK  210  A    between atoms: _528  and  _531
REMARK  211  A    between atoms: _531  and  _532
REMARK  212  A    between atoms: _532  and  _533
REMARK  213  A    between atoms: _538  and  _540
REMARK  214  A    between atoms: _540  and  _541
REMARK  215  A    between atoms: _540  and  _543
REMARK  216  A    between atoms: _543  and  _544
REMARK  217  A    between atoms: _544  and  _545
REMARK  218  A    between atoms: _547  and  _549
REMARK  219  A    between atoms: _549  and  _550
REMARK  220  A    between atoms: _549  and  _552
REMARK  221  A    between atoms: _552  and  _553
REMARK  222  A    between atoms: _555  and  _557
REMARK  223  A    between atoms: _557  and  _558
REMARK  224  A    between atoms: _557  and  _560
REMARK  225  A    between atoms: _560  and  _561
REMARK  226  A    between atoms: _566  and  _567
REMARK  227  A    between atoms: _569  and  _571
REMARK  228  A    between atoms: _571  and  _572
REMARK  229  A    between atoms: _571  and  _574
REMARK  230  A    between atoms: _574  and  _575
REMARK  231  A    between atoms: _585  and  _587
REMARK  232  A    between atoms: _587  and  _588
REMARK  233  A    between atoms: _587  and  _590
REMARK  234  A    between atoms: _590  and  _591
REMARK  235  A    between atoms: _594  and  _596
REMARK  236  A    between atoms: _596  and  _597
REMARK  237  A    between atoms: _600  and  _602
REMARK  238  A    between atoms: _602  and  _603
REMARK  239  A    between atoms: _602  and  _605
REMARK  240  A    between atoms: _605  and  _606
REMARK                            x       y       z     vdW  Elec       q    Type
REMARK                         _______ _______ _______ _____ _____    ______ ____
ROOT
ATOM      1  CA  ASN A   4     -30.006  12.915   2.806  0.00  0.00    +0.158 C 
ENDROOT
BRANCH   1   3
ATOM      2  C   SER A   3     -31.717  14.070   4.061  0.00  0.00    +0.243 C 
ATOM      3  N   ASN A   4     -30.436  13.895   3.781  0.00  0.00    -0.297 N 
ATOM      4  H   ASN A   4     -29.724  14.473   4.271  0.00  0.00    +0.150 HD
ATOM      5  O   SER A   3     -32.610  13.390   3.554  0.00  0.00    -0.273 OA
BRANCH   2   6
ATOM      6  CA  SER A   3     -32.015  15.205   5.029  0.00  0.00    +0.178 C 
BRANCH   6   8
ATOM      7  C   THR A   2     -33.736  16.323   3.796  0.00  0.00    +0.243 C 
ATOM      8  N   SER A   3     -33.396  15.601   4.845  0.00  0.00    -0.295 N 
ATOM      9  H   SER A   3     -34.117  15.317   5.538  0.00  0.00    +0.150 HD
ATOM     10  O   THR A   2     -32.893  16.809   3.043  0.00  0.00    -0.273 OA
BRANCH   7  11
ATOM     11  CA  THR A   2     -35.213  16.567   3.579  0.00  0.00    +0.176 C 
BRANCH  11  14
ATOM     12  C   TYR A   1     -36.500  18.464   2.740  0.00  0.00    +0.239 C 
ATOM     13  O   TYR A   1     -37.486  18.110   3.359  0.00  0.00    -0.274 OA
ATOM     14  N   THR A   2     -35.372  17.756   2.748  0.00  0.00    -0.295 N 
ATOM     15  H   THR A   2     -34.581  18.059   2.144  0.00  0.00    +0.150 HD
BRANCH  12  16
ATOM     16  CA  TYR A   1     -36.545  19.758   1.962  0.00  0.00    +0.149 C 
BRANCH  16  17
ATOM     17  N   TYR A   1     -35.223  20.299   1.651  0.00  0.00    -0.238 NA
ATOM     18  H   TYR A   1     -34.534  19.721   1.129  0.00  0.00    +0.142 HD
ENDBRANCH  16  17
BRANCH  16  19
ATOM     19  CB  TYR A   1     -37.421  19.583   0.694  0.00  0.00    +0.053 C 
BRANCH  19  20
ATOM     20  CG  TYR A   1     -36.847  18.715  -0.398  0.00  0.00    -0.020 A 
ATOM     21  CD2 TYR A   1     -37.097  17.358  -0.437  0.00  0.00    -0.001 A 
ATOM     22  CE2 TYR A   1     -36.566  16.564  -1.429  0.00  0.00    +0.036 A 
ATOM     23  CZ  TYR A   1     -35.763  17.154  -2.393  0.00  0.00    +0.134 A 
ATOM     24  CE1 TYR A   1     -35.501  18.504  -2.365  0.00  0.00    +0.036 A 
ATOM     25  CD1 TYR A   1     -36.041  19.263  -1.373  0.00  0.00    -0.001 A 
BRANCH  23  26
ATOM     26  OH  TYR A   1     -35.205  16.425  -3.412  0.00  0.00    -0.506 OA
ATOM     27  HH  TYR A   1     -35.468  15.475  -3.319  0.00  0.00    +0.292 HD
ENDBRANCH  23  26
ENDBRANCH  19  20
ENDBRANCH  16  19
ENDBRANCH  12  16
ENDBRANCH  11  14
BRANCH  11  28
ATOM     28  CB  THR A   2     -35.895  15.339   2.927  0.00  0.00    +0.137 C 
ATOM     29  CG2 THR A   2     -35.101  14.883   1.669  0.00  0.00    +0.034 C 
BRANCH  28  30
ATOM     30  OG1 THR A   2     -35.976  14.245   3.863  0.00  0.00    -0.382 OA
ATOM     31  HG1 THR A   2     -36.506  14.525   4.651  0.00  0.00    +0.210 HD
ENDBRANCH  28  30
ENDBRANCH  11  28
ENDBRANCH   7  11
ENDBRANCH   6   8
BRANCH   6  32
ATOM     32  CB  SER A   3     -31.721  14.799   6.478  0.00  0.00    +0.166 C 
BRANCH  32  33
ATOM     33  OG  SER A   3     -32.401  13.619   6.844  0.00  0.00    -0.380 OA
ATOM     34  H   SER A   3     -32.185  13.393   7.783  0.00  0.00    +0.211 HD
ENDBRANCH  32  33
ENDBRANCH   6  32
ENDBRANCH   2   6
ENDBRANCH   1   3
BRANCH   1  35
ATOM     35  C   ASN A   4     -28.970  12.000   3.423  0.00  0.00    +0.241 C 
ATOM     36  N   THR A   5     -29.414  10.784   3.724  0.00  0.00    -0.295 N 
ATOM     37  H   THR A   5     -30.404  10.542   3.516  0.00  0.00    +0.150 HD
ATOM     38  O   ASN A   4     -27.806  12.409   3.653  0.00  0.00    -0.273 OA
BRANCH  36  39
ATOM     39  CA  THR A   5     -28.553   9.781   4.337  0.00  0.00    +0.176 C 
BRANCH  39  40
ATOM     40  C   THR A   5     -29.207   8.433   4.096  0.00  0.00    +0.243 C 
ATOM     41  N   TRP A   6     -28.619   7.384   4.650  0.00  0.00    -0.298 N 
ATOM     42  H   TRP A   6     -27.766   7.522   5.228  0.00  0.00    +0.150 HD
ATOM     43  O   THR A   5     -30.210   8.345   3.416  0.00  0.00    -0.273 OA
BRANCH  41  44
ATOM     44  CA  TRP A   6     -29.148   6.038   4.463  0.00  0.00    +0.141 C 
BRANCH  44  45
ATOM     45  C   TRP A   6     -29.036   5.279   5.767  0.00  0.00    +0.227 C 
ATOM     46  O   TRP A   6     -28.438   5.761   6.732  0.00  0.00    -0.286 OA
ENDBRANCH  44  45
BRANCH  44  47
ATOM     47  CB  TRP A   6     -28.434   5.352   3.305  0.00  0.00    +0.056 C 
BRANCH  47  48
ATOM     48  CG  TRP A   6     -26.919   5.343   3.343  0.00  0.00    -0.002 A 
ATOM     49  CD2 TRP A   6     -26.079   4.327   3.919  0.00  0.00    +0.013 A 
ATOM     50  CE3 TRP A   6     -26.331   3.141   4.594  0.00  0.00    +0.001 A 
ATOM     51  CZ3 TRP A   6     -25.231   2.363   5.021  0.00  0.00    +0.000 A 
ATOM     52  CH2 TRP A   6     -23.920   2.768   4.783  0.00  0.00    +0.001 A 
ATOM     53  CZ2 TRP A   6     -23.647   3.930   4.112  0.00  0.00    +0.017 A 
ATOM     54  CE2 TRP A   6     -24.740   4.697   3.670  0.00  0.00    +0.056 A 
ATOM     55  NE1 TRP A   6     -24.761   5.885   2.984  0.00  0.00    -0.352 N 
ATOM     56  HE1 TRP A   6     -23.926   6.414   2.661  0.00  0.00    +0.166 HD
ATOM     57  CD1 TRP A   6     -26.082   6.264   2.792  0.00  0.00    +0.068 A 
ENDBRANCH  47  48
ENDBRANCH  44  47
ENDBRANCH  41  44
ENDBRANCH  39  40
BRANCH  39  58
ATOM     58  CB  THR A   5     -28.321  10.034   5.849  0.00  0.00    +0.137 C 
ATOM     59  CG2 THR A   5     -29.564   9.761   6.692  0.00  0.00    +0.034 C 
BRANCH  58  60
ATOM     60  OG1 THR A   5     -27.226   9.218   6.302  0.00  0.00    -0.382 OA
ATOM     61  HG1 THR A   5     -26.409   9.454   5.796  0.00  0.00    +0.210 HD
ENDBRANCH  58  60
ENDBRANCH  39  58
ENDBRANCH  36  39
ENDBRANCH   1  35
BRANCH   1  62
ATOM     62  CB  ASN A   4     -29.436  13.599   1.567  0.00  0.00    +0.114 C 
BRANCH  62  63
ATOM     63  CG  ASN A   4     -29.363  12.671   0.373  0.00  0.00    +0.222 C 
ATOM     64  OD1 ASN A   4     -30.214  11.784   0.200  0.00  0.00    -0.275 OA
ATOM     65  ND2 ASN A   4     -28.379  12.898  -0.465  0.00  0.00    -0.329 N 
ATOM     66 HD21 ASN A   4     -27.694  13.655  -0.269  0.00  0.00    +0.145 HD
ATOM     67 HD22 ASN A   4     -28.284  12.320  -1.325  0.00  0.00    +0.145 HD
ENDBRANCH  62  63
ENDBRANCH   1  62
TORSDOF 25
REMARK  Name = ../refined-set-2016/4ua8/4ua8_pocket.pdb
REMARK  240 active torsions:
REMARK  status: ('A' for Active; 'I' for Inactive)
REMARK    1  A    between atoms: _1  and  _3
REMARK    2  A    between atoms: _3  and  _4
REMARK    3  A    between atoms: _7  and  _8
REMARK    4  A    between atoms: _13  and  _15
REMARK    5  A    between atoms: _15  and  _16
REMARK    6  A    between atoms: _19  and  _21
REMARK    7  A    between atoms: _21  and  _22
REMARK    8  A    between atoms: _21  and  _24
REMARK    9  A    between atoms: _24  and  _25
REMARK   10  A    between atoms: _25  and  _26
REMARK   11  A    between atoms: _29  and  _31
REMARK   12  A    between atoms: _31  and  _32
REMARK   13  A    between atoms: _31  and  _34
REMARK   14  A    between atoms: _34  and  _35
REMARK   15  A    between atoms: _38  and  _40
REMARK   16  A    between atoms: _40  and  _41
REMARK   17  A    between atoms: _40  and  _43
REMARK   18  A    between atoms: _43  and  _44
REMARK   19  A    between atoms: _46  and  _48
REMARK   20  A    between atoms: _48  and  _49
REMARK   21  A    between atoms: _48  and  _51
REMARK   22  A    between atoms: _51  and  _52
REMARK   23  A    between atoms: _54  and  _56
REMARK   24  A    between atoms: _56  and  _57
REMARK   25  A    between atoms: _56  and  _59
REMARK   26  A    between atoms: _59  and  _60
REMARK   27  A    between atoms: _60  and  _61
REMARK   28  A    between atoms: _64  and  _66
REMARK   29  A    between atoms: _66  and  _67
REMARK   30  A    between atoms: _66  and  _69
REMARK   31  A    between atoms: _69  and  _70
REMARK   32  A    between atoms: _72  and  _74
REMARK   33  A    between atoms: _74  and  _75
REMARK   34  A    between atoms: _74  and  _77
REMARK   35  A    between atoms: _77  and  _78
REMARK   36  A    between atoms: _81  and  _83
REMARK   37  A    between atoms: _83  and  _84
REMARK   38  A    between atoms: _87  and  _89
REMARK   39  A    between atoms: _89  and  _90
REMARK   40  A    between atoms: _89  and  _92
REMARK   41  A    between atoms: _92  and  _93
REMARK   42  A    between atoms: _93  and  _94
REMARK   43  A    between atoms: _94  and  _95
REMARK   44  A    between atoms: _95  and  _96
REMARK   45  A    between atoms: _100  and  _102
REMARK   46  A    between atoms: _102  and  _103
REMARK   47  A    between atoms: _102  and  _105
REMARK   48  A    between atoms: _105  and  _106
REMARK   49  A    between atoms: _109  and  _111
REMARK   50  A    between atoms: _111  and  _112
REMARK   51  A    between atoms: _111  and  _114
REMARK   52  A    between atoms: _114  and  _115
REMARK   53  A    between atoms: _115  and  _116
REMARK   54  A    between atoms: _118  and  _120
REMARK   55  A    between atoms: _120  and  _121
REMARK   56  A    between atoms: _120  and  _123
REMARK   57  A    between atoms: _123  and  _124
REMARK   58  A    between atoms: _130  and  _132
REMARK   59  A    between atoms: _132  and  _133
REMARK   60  A    between atoms: _136  and  _138
REMARK   61  A    between atoms: _138  and  _139
REMARK   62  A    between atoms: _138  and  _141
REMARK   63  A    between atoms: _141  and  _142
REMARK   64  A    between atoms: _147  and  _149
REMARK   65  A    between atoms: _149  and  _150
REMARK   66  A    between atoms: _149  and  _152
REMARK   67  A    between atoms: _152  and  _153
REMARK   68  A    between atoms: _156  and  _158
REMARK   69  A    between atoms: _158  and  _159
REMARK   70  A    between atoms: _158  and  _161
REMARK   71  A    between atoms: _161  and  _162
REMARK   72  A    between atoms: _162  and  _163
REMARK   73  A    between atoms: _168  and  _170
REMARK   74  A    between atoms: _170  and  _171
REMARK   75  A    between atoms: _170  and  _173
REMARK   76  A    between atoms: _173  and  _174
REMARK   77  A    between atoms: _178  and  _179
REMARK   78  A    between atoms: _184  and  _186
REMARK   79  A    between atoms: _186  and  _187
REMARK   80  A    between atoms: _186  and  _189
REMARK   81  A    between atoms: _189  and  _190
REMARK   82  A    between atoms: _195  and  _196
REMARK   83  A    between atoms: _198  and  _200
REMARK   84  A    between atoms: _200  and  _201
REMARK   85  A    between atoms: _200  and  _203
REMARK   86  A    between atoms: _203  and  _204
REMARK   87  A    between atoms: _207  and  _209
REMARK   88  A    between atoms: _209  and  _210
REMARK   89  A    between atoms: _209  and  _212
REMARK   90  A    between atoms: _212  and  _213
REMARK   91  A    between atoms: _215  and  _217
REMARK   92  A    between atoms: _217  and  _218
REMARK   93  A    between atoms: _217  and  _220
REMARK   94  A    between atoms: _220  and  _221
REMARK   95  A    between atoms: _226  and  _228
REMARK   96  A    between atoms: _228  and  _229
REMARK   97  A    between atoms: _228  and  _231
REMARK   98  A    between atoms: _231  and  _232
REMARK   99  A    between atoms: _235  and  _237
REMARK  100  A    between atoms: _237  and  _238
REMARK  101  A    between atoms: _237  and  _240
REMARK  102  A    between atoms: _240  and  _241
REMARK  103  A    between atoms: _252  and  _253
REMARK  104  A    between atoms: _258  and  _260
REMARK  105  A    between atoms: _260  and  _261
REMARK  106  A    between atoms: _260  and  _263
REMARK  107  A    between atoms: _263  and  _264
REMARK  108  A    between atoms: _267  and  _269
REMARK  109  A    between atoms: _269  and  _270
REMARK  110  A    between atoms: _269  and  _272
REMARK  111  A    between atoms: _272  and  _273
REMARK  112  A    between atoms: _278  and  _280
REMARK  113  A    between atoms: _280  and  _281
REMARK  114  A    between atoms: _283  and  _285
REMARK  115  A    between atoms: _285  and  _286
REMARK  116  A    between atoms: _285  and  _288
REMARK  117  A    between atoms: _288  and  _289
REMARK  118  A    between atoms: _299  and  _301
REMARK  119  A    between atoms: _301  and  _302
REMARK  120  A    between atoms: _301  and  _304
REMARK  121  A    between atoms: _304  and  _305
REMARK  122  A    between atoms: _310  and  _311
REMARK  123  A    between atoms: _313  and  _315
REMARK  124  A    between atoms: _315  and  _316
REMARK  125  A    between atoms: _315  and  _318
REMARK  126  A    between atoms: _318  and  _319
REMARK  127  A    between atoms: _322  and  _324
REMARK  128  A    between atoms: _324  and  _325
REMARK  129  A    between atoms: _324  and  _327
REMARK  130  A    between atoms: _327  and  _328
REMARK  131  A    between atoms: _333  and  _335
REMARK  132  A    between atoms: _335  and  _336
REMARK  133  A    between atoms: _335  and  _338
REMARK  134  A    between atoms: _338  and  _339
REMARK  135  A    between atoms: _344  and  _346
REMARK  136  A    between atoms: _346  and  _347
REMARK  137  A    between atoms: _346  and  _349
REMARK  138  A    between atoms: _349  and  _350
REMARK  139  A    between atoms: _350  and  _351
REMARK  140  A    between atoms: _354  and  _356
REMARK  141  A    between atoms: _356  and  _357
REMARK  142  A    between atoms: _359  and  _361
REMARK  143  A    between atoms: _361  and  _362
REMARK  144  A    between atoms: _361  and  _364
REMARK  145  A    between atoms: _364  and  _365
REMARK  146  A    between atoms: _367  and  _369
REMARK  147  A    between atoms: _369  and  _370
REMARK  148  A    between atoms: _369  and  _372
REMARK  149  A    between atoms: _372  and  _373
REMARK  150  A    between atoms: _378  and  _379
REMARK  151  A    between atoms: _381  and  _383
REMARK  152  A    between atoms: _383  and  _384
REMARK  153  A    between atoms: _383  and  _386
REMARK  154  A    between atoms: _386  and  _387
REMARK  155  A    between atoms: _392  and  _394
REMARK  156  A    between atoms: _394  and  _395
REMARK  157  A    between atoms: _397  and  _399
REMARK  158  A    between atoms: _399  and  _400
REMARK  159  A    between atoms: _399  and  _402
REMARK  160  A    between atoms: _402  and  _403
REMARK  161  A    between atoms: _408  and  _410
REMARK  162  A    between atoms: _410  and  _411
REMARK  163  A    between atoms: _410  and  _413
REMARK  164  A    between atoms: _413  and  _414
REMARK  165  A    between atoms: _424  and  _426
REMARK  166  A    between atoms: _426  and  _427
REMARK  167  A    between atoms: _426  and  _429
REMARK  168  A    between atoms: _429  and  _430
REMARK  169  A    between atoms: _435  and  _437
REMARK  170  A    between atoms: _437  and  _438
REMARK  171  A    between atoms: _437  and  _440
REMARK  172  A    between atoms: _440  and  _441
REMARK  173  A    between atoms: _441  and  _442
REMARK  174  A    between atoms: _442  and  _443
REMARK  175  A    between atoms: _443  and  _444
REMARK  176  A    between atoms: _448  and  _450
REMARK  177  A    between atoms: _450  and  _451
REMARK  178  A    between atoms: _450  and  _453
REMARK  179  A    between atoms: _453  and  _454
REMARK  180  A    between atoms: _460  and  _462
REMARK  181  A    between atoms: _462  and  _463
REMARK  182  A    between atoms: _465  and  _467
REMARK  183  A    between atoms: _467  and  _468
REMARK  184  A    between atoms: _467  and  _470
REMARK  185  A    between atoms: _470  and  _471
REMARK  186  A    between atoms: _473  and  _475
REMARK  187  A    between atoms: _475  and  _476
REMARK  188  A    between atoms: _475  and  _478
REMARK  189  A    between atoms: _478  and  _479
REMARK  190  A    between atoms: _479  and  _480
REMARK  191  A    between atoms: _480  and  _481
REMARK  192  A    between atoms: _481  and  _482
REMARK  193  A    between atoms: _486  and  _488
REMARK  194  A    between atoms: _488  and  _489
REMARK  195  A    between atoms: _488  and  _491
REMARK  196  A    between atoms: _491  and  _492
REMARK  197  A    between atoms: _497  and  _499
REMARK  198  A    between atoms: _499  and  _500
REMARK  199  A    between atoms: _499  and  _502
REMARK  200  A    between atoms: _502  and  _503
REMARK  201  A    between atoms: _503  and  _504
REMARK  202  A    between atoms: _504  and  _505
REMARK  203  A    between atoms: _514  and  _516
REMARK  204  A    between atoms: _516  and  _517
REMARK  205  A    between atoms: _516  and  _519
REMARK  206  A    between atoms: _519  and  _520
REMARK  207  A    between atoms: _520  and  _521
REMARK  208  A    between atoms: _526  and  _528
REMARK  209  A    between atoms: _528  and  _529
REMARK  210  A    between atoms: _528  and  _531
REMARK  211  A    between atoms: _531  and  _532
REMARK  212  A    between atoms: _532  and  _533
REMARK  213  A    between atoms: _538  and  _540
REMARK  214  A    between atoms: _540  and  _541
REMARK  215  A    between atoms: _540  and  _543
REMARK  216  A    between atoms: _543  and  _544
REMARK  217  A    between atoms: _544  and  _545
REMARK  218  A    between atoms: _547  and  _549
REMARK  219  A    between atoms: _549  and  _550
REMARK  220  A    between atoms: _549  and  _552
REMARK  221  A    between atoms: _552  and  _553
REMARK  222  A    between atoms: _555  and  _557
REMARK  223  A    between atoms: _557  and  _558
REMARK  224  A    between atoms: _557  and  _560
REMARK  225  A    between atoms: _560  and  _561
REMARK  226  A    between atoms: _566  and  _567
REMARK  227  A    between atoms: _569  and  _571
REMARK  228  A    between atoms: _571  and  _572
REMARK  229  A    between atoms: _571  and  _574
REMARK  230  A    between atoms: _574  and  _575
REMARK  231  A    between atoms: _585  and  _587
REMARK  232  A    between atoms: _587  and  _588
REMARK  233  A    between atoms: _587  and  _590
REMARK  234  A    between atoms: _590  and  _591
REMARK  235  A    between atoms: _594  and  _596
REMARK  236  A    between atoms: _596  and  _597
REMARK  237  A    between atoms: _600  and  _602
REMARK  238  A    between atoms: _602  and  _603
REMARK  239  A    between atoms: _602  and  _605
REMARK  240  A    between atoms: _605  and  _606
REMARK                            x       y       z     vdW  Elec       q    Type
REMARK                         _______ _______ _______ _____ _____    ______ ____
ROOT
ATOM      1  N   PRO A   1     -24.588  -2.242  -1.101  0.00  0.00    -0.212 NA
ATOM      2  CD  PRO A   1     -25.394  -1.244  -0.371  0.00  0.00    +0.089 C 
ATOM      3  CG  PRO A   1     -25.490  -0.093  -1.363  0.00  0.00    +0.021 C 
ATOM      4  CB  PRO A   1     -25.298  -0.694  -2.708  0.00  0.00    +0.027 C 
ATOM      5  CA  PRO A   1     -24.249  -1.782  -2.456  0.00  0.00    +0.137 C 
ENDROOT
BRANCH   5   6
ATOM      6  C   PRO A   1     -22.829  -1.224  -2.578  0.00  0.00    +0.224 C 
ATOM      7  O   PRO A   1     -22.584  -0.023  -2.660  0.00  0.00    -0.287 OA
ENDBRANCH   5   6
TORSDOF 1
REMARK  Name = ../refined-set-2016/4ua8/4ua8_pocket.pdb
REMARK  240 active torsions:
REMARK  status: ('A' for Active; 'I' for Inactive)
REMARK    1  A    between atoms: _1  and  _3
REMARK    2  A    between atoms: _3  and  _4
REMARK    3  A    between atoms: _7  and  _8
REMARK    4  A    between atoms: _13  and  _15
REMARK    5  A    between atoms: _15  and  _16
REMARK    6  A    between atoms: _19  and  _21
REMARK    7  A    between atoms: _21  and  _22
REMARK    8  A    between atoms: _21  and  _24
REMARK    9  A    between atoms: _24  and  _25
REMARK   10  A    between atoms: _25  and  _26
REMARK   11  A    between atoms: _29  and  _31
REMARK   12  A    between atoms: _31  and  _32
REMARK   13  A    between atoms: _31  and  _34
REMARK   14  A    between atoms: _34  and  _35
REMARK   15  A    between atoms: _38  and  _40
REMARK   16  A    between atoms: _40  and  _41
REMARK   17  A    between atoms: _40  and  _43
REMARK   18  A    between atoms: _43  and  _44
REMARK   19  A    between atoms: _46  and  _48
REMARK   20  A    between atoms: _48  and  _49
REMARK   21  A    between atoms: _48  and  _51
REMARK   22  A    between atoms: _51  and  _52
REMARK   23  A    between atoms: _54  and  _56
REMARK   24  A    between atoms: _56  and  _57
REMARK   25  A    between atoms: _56  and  _59
REMARK   26  A    between atoms: _59  and  _60
REMARK   27  A    between atoms: _60  and  _61
REMARK   28  A    between atoms: _64  and  _66
REMARK   29  A    between atoms: _66  and  _67
REMARK   30  A    between atoms: _66  and  _69
REMARK   31  A    between atoms: _69  and  _70
REMARK   32  A    between atoms: _72  and  _74
REMARK   33  A    between atoms: _74  and  _75
REMARK   34  A    between atoms: _74  and  _77
REMARK   35  A    between atoms: _77  and  _78
REMARK   36  A    between atoms: _81  and  _83
REMARK   37  A    between atoms: _83  and  _84
REMARK   38  A    between atoms: _87  and  _89
REMARK   39  A    between atoms: _89  and  _90
REMARK   40  A    between atoms: _89  and  _92
REMARK   41  A    between atoms: _92  and  _93
REMARK   42  A    between atoms: _93  and  _94
REMARK   43  A    between atoms: _94  and  _95
REMARK   44  A    between atoms: _95  and  _96
REMARK   45  A    between atoms: _100  and  _102
REMARK   46  A    between atoms: _102  and  _103
REMARK   47  A    between atoms: _102  and  _105
REMARK   48  A    between atoms: _105  and  _106
REMARK   49  A    between atoms: _109  and  _111
REMARK   50  A    between atoms: _111  and  _112
REMARK   51  A    between atoms: _111  and  _114
REMARK   52  A    between atoms: _114  and  _115
REMARK   53  A    between atoms: _115  and  _116
REMARK   54  A    between atoms: _118  and  _120
REMARK   55  A    between atoms: _120  and  _121
REMARK   56  A    between atoms: _120  and  _123
REMARK   57  A    between atoms: _123  and  _124
REMARK   58  A    between atoms: _130  and  _132
REMARK   59  A    between atoms: _132  and  _133
REMARK   60  A    between atoms: _136  and  _138
REMARK   61  A    between atoms: _138  and  _139
REMARK   62  A    between atoms: _138  and  _141
REMARK   63  A    between atoms: _141  and  _142
REMARK   64  A    between atoms: _147  and  _149
REMARK   65  A    between atoms: _149  and  _150
REMARK   66  A    between atoms: _149  and  _152
REMARK   67  A    between atoms: _152  and  _153
REMARK   68  A    between atoms: _156  and  _158
REMARK   69  A    between atoms: _158  and  _159
REMARK   70  A    between atoms: _158  and  _161
REMARK   71  A    between atoms: _161  and  _162
REMARK   72  A    between atoms: _162  and  _163
REMARK   73  A    between atoms: _168  and  _170
REMARK   74  A    between atoms: _170  and  _171
REMARK   75  A    between atoms: _170  and  _173
REMARK   76  A    between atoms: _173  and  _174
REMARK   77  A    between atoms: _178  and  _179
REMARK   78  A    between atoms: _184  and  _186
REMARK   79  A    between atoms: _186  and  _187
REMARK   80  A    between atoms: _186  and  _189
REMARK   81  A    between atoms: _189  and  _190
REMARK   82  A    between atoms: _195  and  _196
REMARK   83  A    between atoms: _198  and  _200
REMARK   84  A    between atoms: _200  and  _201
REMARK   85  A    between atoms: _200  and  _203
REMARK   86  A    between atoms: _203  and  _204
REMARK   87  A    between atoms: _207  and  _209
REMARK   88  A    between atoms: _209  and  _210
REMARK   89  A    between atoms: _209  and  _212
REMARK   90  A    between atoms: _212  and  _213
REMARK   91  A    between atoms: _215  and  _217
REMARK   92  A    between atoms: _217  and  _218
REMARK   93  A    between atoms: _217  and  _220
REMARK   94  A    between atoms: _220  and  _221
REMARK   95  A    between atoms: _226  and  _228
REMARK   96  A    between atoms: _228  and  _229
REMARK   97  A    between atoms: _228  and  _231
REMARK   98  A    between atoms: _231  and  _232
REMARK   99  A    between atoms: _235  and  _237
REMARK  100  A    between atoms: _237  and  _238
REMARK  101  A    between atoms: _237  and  _240
REMARK  102  A    between atoms: _240  and  _241
REMARK  103  A    between atoms: _252  and  _253
REMARK  104  A    between atoms: _258  and  _260
REMARK  105  A    between atoms: _260  and  _261
REMARK  106  A    between atoms: _260  and  _263
REMARK  107  A    between atoms: _263  and  _264
REMARK  108  A    between atoms: _267  and  _269
REMARK  109  A    between atoms: _269  and  _270
REMARK  110  A    between atoms: _269  and  _272
REMARK  111  A    between atoms: _272  and  _273
REMARK  112  A    between atoms: _278  and  _280
REMARK  113  A    between atoms: _280  and  _281
REMARK  114  A    between atoms: _283  and  _285
REMARK  115  A    between atoms: _285  and  _286
REMARK  116  A    between atoms: _285  and  _288
REMARK  117  A    between atoms: _288  and  _289
REMARK  118  A    between atoms: _299  and  _301
REMARK  119  A    between atoms: _301  and  _302
REMARK  120  A    between atoms: _301  and  _304
REMARK  121  A    between atoms: _304  and  _305
REMARK  122  A    between atoms: _310  and  _311
REMARK  123  A    between atoms: _313  and  _315
REMARK  124  A    between atoms: _315  and  _316
REMARK  125  A    between atoms: _315  and  _318
REMARK  126  A    between atoms: _318  and  _319
REMARK  127  A    between atoms: _322  and  _324
REMARK  128  A    between atoms: _324  and  _325
REMARK  129  A    between atoms: _324  and  _327
REMARK  130  A    between atoms: _327  and  _328
REMARK  131  A    between atoms: _333  and  _335
REMARK  132  A    between atoms: _335  and  _336
REMARK  133  A    between atoms: _335  and  _338
REMARK  134  A    between atoms: _338  and  _339
REMARK  135  A    between atoms: _344  and  _346
REMARK  136  A    between atoms: _346  and  _347
REMARK  137  A    between atoms: _346  and  _349
REMARK  138  A    between atoms: _349  and  _350
REMARK  139  A    between atoms: _350  and  _351
REMARK  140  A    between atoms: _354  and  _356
REMARK  141  A    between atoms: _356  and  _357
REMARK  142  A    between atoms: _359  and  _361
REMARK  143  A    between atoms: _361  and  _362
REMARK  144  A    between atoms: _361  and  _364
REMARK  145  A    between atoms: _364  and  _365
REMARK  146  A    between atoms: _367  and  _369
REMARK  147  A    between atoms: _369  and  _370
REMARK  148  A    between atoms: _369  and  _372
REMARK  149  A    between atoms: _372  and  _373
REMARK  150  A    between atoms: _378  and  _379
REMARK  151  A    between atoms: _381  and  _383
REMARK  152  A    between atoms: _383  and  _384
REMARK  153  A    between atoms: _383  and  _386
REMARK  154  A    between atoms: _386  and  _387
REMARK  155  A    between atoms: _392  and  _394
REMARK  156  A    between atoms: _394  and  _395
REMARK  157  A    between atoms: _397  and  _399
REMARK  158  A    between atoms: _399  and  _400
REMARK  159  A    between atoms: _399  and  _402
REMARK  160  A    between atoms: _402  and  _403
REMARK  161  A    between atoms: _408  and  _410
REMARK  162  A    between atoms: _410  and  _411
REMARK  163  A    between atoms: _410  and  _413
REMARK  164  A    between atoms: _413  and  _414
REMARK  165  A    between atoms: _424  and  _426
REMARK  166  A    between atoms: _426  and  _427
REMARK  167  A    between atoms: _426  and  _429
REMARK  168  A    between atoms: _429  and  _430
REMARK  169  A    between atoms: _435  and  _437
REMARK  170  A    between atoms: _437  and  _438
REMARK  171  A    between atoms: _437  and  _440
REMARK  172  A    between atoms: _440  and  _441
REMARK  173  A    between atoms: _441  and  _442
REMARK  174  A    between atoms: _442  and  _443
REMARK  175  A    between atoms: _443  and  _444
REMARK  176  A    between atoms: _448  and  _450
REMARK  177  A    between atoms: _450  and  _451
REMARK  178  A    between atoms: _450  and  _453
REMARK  179  A    between atoms: _453  and  _454
REMARK  180  A    between atoms: _460  and  _462
REMARK  181  A    between atoms: _462  and  _463
REMARK  182  A    between atoms: _465  and  _467
REMARK  183  A    between atoms: _467  and  _468
REMARK  184  A    between atoms: _467  and  _470
REMARK  185  A    between atoms: _470  and  _471
REMARK  186  A    between atoms: _473  and  _475
REMARK  187  A    between atoms: _475  and  _476
REMARK  188  A    between atoms: _475  and  _478
REMARK  189  A    between atoms: _478  and  _479
REMARK  190  A    between atoms: _479  and  _480
REMARK  191  A    between atoms: _480  and  _481
REMARK  192  A    between atoms: _481  and  _482
REMARK  193  A    between atoms: _486  and  _488
REMARK  194  A    between atoms: _488  and  _489
REMARK  195  A    between atoms: _488  and  _491
REMARK  196  A    between atoms: _491  and  _492
REMARK  197  A    between atoms: _497  and  _499
REMARK  198  A    between atoms: _499  and  _500
REMARK  199  A    between atoms: _499  and  _502
REMARK  200  A    between atoms: _502  and  _503
REMARK  201  A    between atoms: _503  and  _504
REMARK  202  A    between atoms: _504  and  _505
REMARK  203  A    between atoms: _514  and  _516
REMARK  204  A    between atoms: _516  and  _517
REMARK  205  A    between atoms: _516  and  _519
REMARK  206  A    between atoms: _519  and  _520
REMARK  207  A    between atoms: _520  and  _521
REMARK  208  A    between atoms: _526  and  _528
REMARK  209  A    between atoms: _528  and  _529
REMARK  210  A    between atoms: _528  and  _531
REMARK  211  A    between atoms: _531  and  _532
REMARK  212  A    between atoms: _532  and  _533
REMARK  213  A    between atoms: _538  and  _540
REMARK  214  A    between atoms: _540  and  _541
REMARK  215  A    between atoms: _540  and  _543
REMARK  216  A    between atoms: _543  and  _544
REMARK  217  A    between atoms: _544  and  _545
REMARK  218  A    between atoms: _547  and  _549
REMARK  219  A    between atoms: _549  and  _550
REMARK  220  A    between atoms: _549  and  _552
REMARK  221  A    between atoms: _552  and  _553
REMARK  222  A    between atoms: _555  and  _557
REMARK  223  A    between atoms: _557  and  _558
REMARK  224  A    between atoms: _557  and  _560
REMARK  225  A    between atoms: _560  and  _561
REMARK  226  A    between atoms: _566  and  _567
REMARK  227  A    between atoms: _569  and  _571
REMARK  228  A    between atoms: _571  and  _572
REMARK  229  A    between atoms: _571  and  _574
REMARK  230  A    between atoms: _574  and  _575
REMARK  231  A    between atoms: _585  and  _587
REMARK  232  A    between atoms: _587  and  _588
REMARK  233  A    between atoms: _587  and  _590
REMARK  234  A    between atoms: _590  and  _591
REMARK  235  A    between atoms: _594  and  _596
REMARK  236  A    between atoms: _596  and  _597
REMARK  237  A    between atoms: _600  and  _602
REMARK  238  A    between atoms: _602  and  _603
REMARK  239  A    between atoms: _602  and  _605
REMARK  240  A    between atoms: _605  and  _606
REMARK                            x       y       z     vdW  Elec       q    Type
REMARK                         _______ _______ _______ _____ _____    ______ ____
ROOT
ATOM      1  CA  TRP A   4     -22.203   7.035  -1.282  0.00  0.00    +0.153 C 
ENDROOT
BRANCH   1   4
ATOM      2  C   GLY A   3     -20.180   6.027  -2.137  0.00  0.00    +0.243 C 
ATOM      3  O   GLY A   3     -19.584   6.235  -1.075  0.00  0.00    -0.273 OA
ATOM      4  N   TRP A   4     -21.441   6.385  -2.332  0.00  0.00    -0.297 N 
ATOM      5  H   TRP A   4     -21.891   6.197  -3.251  0.00  0.00    +0.150 HD
BRANCH   2   6
ATOM      6  CA  GLY A   3     -19.469   5.350  -3.289  0.00  0.00    +0.176 C 
BRANCH   6   9
ATOM      7  C   ASN A   2     -21.125   3.671  -3.817  0.00  0.00    +0.241 C 
ATOM      8  O   ASN A   2     -21.209   3.337  -2.629  0.00  0.00    -0.273 OA
ATOM      9  N   GLY A   3     -20.322   4.646  -4.230  0.00  0.00    -0.295 N 
ATOM     10  H   GLY A   3     -20.304   4.907  -5.236  0.00  0.00    +0.150 HD
BRANCH   7  11
ATOM     11  CA  ASN A   2     -21.906   2.911  -4.880  0.00  0.00    +0.158 C 
BRANCH  11  13
ATOM     12  C   ASP A   1     -20.680   1.149  -6.078  0.00  0.00    +0.239 C 
ATOM     13  N   ASN A   2     -21.333   1.565  -4.989  0.00  0.00    -0.297 N 
ATOM     14  H   ASN A   2     -21.439   0.910  -4.188  0.00  0.00    +0.150 HD
ATOM     15  O   ASP A   1     -20.502   1.865  -7.060  0.00  0.00    -0.274 OA
BRANCH  12  16
ATOM     16  CA  ASP A   1     -20.054  -0.243  -6.008  0.00  0.00    +0.156 C 
BRANCH  16  17
ATOM     17  N   ASP A   1     -20.586  -1.025  -4.878  0.00  0.00    -0.238 NA
ATOM     18  H   ASP A   1     -21.459  -1.583  -4.974  0.00  0.00    +0.142 HD
ENDBRANCH  16  17
BRANCH  16  19
ATOM     19  CB  ASP A   1     -20.157  -1.014  -7.340  0.00  0.00    +0.140 C 
BRANCH  19  20
ATOM     20  CG  ASP A   1     -21.545  -1.090  -7.950  0.00  0.00    +0.367 C 
ATOM     21  OD2 ASP A   1     -22.492  -0.401  -7.543  0.00  0.00    -0.246 OA
ATOM     22  OD1 ASP A   1     -21.687  -1.898  -8.933  0.00  0.00    -0.246 OA
ENDBRANCH  19  20
ENDBRANCH  16  19
ENDBRANCH  12  16
ENDBRANCH  11  13
BRANCH  11  23
ATOM     23  CB  ASN A   2     -23.380   2.808  -4.537  0.00  0.00    +0.114 C 
BRANCH  23  24
ATOM     24  CG  ASN A   2     -24.083   4.122  -4.619  0.00  0.00    +0.222 C 
ATOM     25  OD1 ASN A   2     -23.526   5.167  -4.254  0.00  0.00    -0.275 OA
ATOM     26  ND2 ASN A   2     -25.301   4.091  -5.111  0.00  0.00    -0.329 N 
ATOM     27 HD21 ASN A   2     -25.845   4.972  -5.209  0.00  0.00    +0.145 HD
ATOM     28 HD22 ASN A   2     -25.721   3.185  -5.402  0.00  0.00    +0.145 HD
ENDBRANCH  23  24
ENDBRANCH  11  23
ENDBRANCH   7  11
ENDBRANCH   6   9
ENDBRANCH   2   6
ENDBRANCH   1   4
BRANCH   1  29
ATOM     29  C   TRP A   4     -22.450   6.105  -0.091  0.00  0.00    +0.241 C 
ATOM     30  O   TRP A   4     -22.679   6.574   1.019  0.00  0.00    -0.273 OA
ATOM     31  N   TYR A   5     -22.347   4.794  -0.339  0.00  0.00    -0.297 N 
ATOM     32  H   TYR A   5     -22.204   4.500  -1.326  0.00  0.00    +0.150 HD
BRANCH  31  33
ATOM     33  CA  TYR A   5     -22.421   3.740   0.681  0.00  0.00    +0.153 C 
BRANCH  33  34
ATOM     34  C   TYR A   5     -21.054   3.177   1.094  0.00  0.00    +0.241 C 
ATOM     35  O   TYR A   5     -20.828   2.863   2.247  0.00  0.00    -0.273 OA
ATOM     36  N   LEU A   6     -20.159   3.019   0.131  0.00  0.00    -0.298 N 
ATOM     37  H   LEU A   6     -20.392   3.340  -0.830  0.00  0.00    +0.150 HD
BRANCH  36  38
ATOM     38  CA  LEU A   6     -18.855   2.409   0.376  0.00  0.00    +0.137 C 
BRANCH  38  39
ATOM     39  C   LEU A   6     -18.089   3.072   1.496  0.00  0.00    +0.227 C 
ATOM     40  O   LEU A   6     -17.408   2.403   2.312  0.00  0.00    -0.286 OA
ENDBRANCH  38  39
BRANCH  38  41
ATOM     41  CB  LEU A   6     -18.021   2.476  -0.890  0.00  0.00    +0.028 C 
BRANCH  41  42
ATOM     42  CG  LEU A   6     -16.575   1.979  -0.838  0.00  0.00    +0.002 C 
ATOM     43  CD2 LEU A   6     -16.560   0.467  -0.690  0.00  0.00    +0.000 C 
ATOM     44  CD1 LEU A   6     -15.813   2.439  -2.059  0.00  0.00    +0.000 C 
ENDBRANCH  41  42
ENDBRANCH  38  41
ENDBRANCH  36  38
ENDBRANCH  33  34
BRANCH  33  45
ATOM     45  CB  TYR A   5     -23.295   2.605   0.159  0.00  0.00    +0.055 C 
BRANCH  45  46
ATOM     46  CG  TYR A   5     -24.743   2.959  -0.088  0.00  0.00    -0.020 A 
ATOM     47  CD2 TYR A   5     -25.701   2.768   0.916  0.00  0.00    -0.001 A 
ATOM     48  CE2 TYR A   5     -27.021   3.084   0.712  0.00  0.00    +0.036 A 
ATOM     49  CZ  TYR A   5     -27.437   3.581  -0.506  0.00  0.00    +0.134 A 
ATOM     50  CE1 TYR A   5     -26.522   3.772  -1.519  0.00  0.00    +0.036 A 
ATOM     51  CD1 TYR A   5     -25.177   3.461  -1.301  0.00  0.00    -0.001 A 
BRANCH  49  52
ATOM     52  OH  TYR A   5     -28.772   3.867  -0.702  0.00  0.00    -0.506 OA
ATOM     53  HH  TYR A   5     -29.122   3.311  -1.442  0.00  0.00    +0.292 HD
ENDBRANCH  49  52
ENDBRANCH  45  46
ENDBRANCH  33  45
ENDBRANCH  31  33
ENDBRANCH   1  29
BRANCH   1  54
ATOM     54  CB  TRP A   4     -23.519   7.555  -1.873  0.00  0.00    +0.057 C 
BRANCH  54  55
ATOM     55  CG  TRP A   4     -24.309   8.489  -1.032  0.00  0.00    -0.002 A 
ATOM     56  CD2 TRP A   4     -25.613   8.259  -0.545  0.00  0.00    +0.013 A 
ATOM     57  CE2 TRP A   4     -25.999   9.407   0.197  0.00  0.00    +0.056 A 
ATOM     58  CZ2 TRP A   4     -27.248   9.506   0.799  0.00  0.00    +0.017 A 
ATOM     59  CH2 TRP A   4     -28.114   8.450   0.656  0.00  0.00    +0.001 A 
ATOM     60  CZ3 TRP A   4     -27.744   7.296  -0.051  0.00  0.00    +0.000 A 
ATOM     61  NE1 TRP A   4     -24.962  10.303   0.142  0.00  0.00    -0.352 N 
ATOM     62  HE1 TRP A   4     -24.946  11.243   0.587  0.00  0.00    +0.166 HD
ATOM     63  CE3 TRP A   4     -26.511   7.199  -0.653  0.00  0.00    +0.001 A 
ATOM     64  CD1 TRP A   4     -23.944   9.747  -0.603  0.00  0.00    +0.068 A 
ENDBRANCH  54  55
ENDBRANCH   1  54
TORSDOF 23
REMARK  Name = ../refined-set-2016/4ua8/4ua8_pocket.pdb
REMARK  240 active torsions:
REMARK  status: ('A' for Active; 'I' for Inactive)
REMARK    1  A    between atoms: _1  and  _3
REMARK    2  A    between atoms: _3  and  _4
REMARK    3  A    between atoms: _7  and  _8
REMARK    4  A    between atoms: _13  and  _15
REMARK    5  A    between atoms: _15  and  _16
REMARK    6  A    between atoms: _19  and  _21
REMARK    7  A    between atoms: _21  and  _22
REMARK    8  A    between atoms: _21  and  _24
REMARK    9  A    between atoms: _24  and  _25
REMARK   10  A    between atoms: _25  and  _26
REMARK   11  A    between atoms: _29  and  _31
REMARK   12  A    between atoms: _31  and  _32
REMARK   13  A    between atoms: _31  and  _34
REMARK   14  A    between atoms: _34  and  _35
REMARK   15  A    between atoms: _38  and  _40
REMARK   16  A    between atoms: _40  and  _41
REMARK   17  A    between atoms: _40  and  _43
REMARK   18  A    between atoms: _43  and  _44
REMARK   19  A    between atoms: _46  and  _48
REMARK   20  A    between atoms: _48  and  _49
REMARK   21  A    between atoms: _48  and  _51
REMARK   22  A    between atoms: _51  and  _52
REMARK   23  A    between atoms: _54  and  _56
REMARK   24  A    between atoms: _56  and  _57
REMARK   25  A    between atoms: _56  and  _59
REMARK   26  A    between atoms: _59  and  _60
REMARK   27  A    between atoms: _60  and  _61
REMARK   28  A    between atoms: _64  and  _66
REMARK   29  A    between atoms: _66  and  _67
REMARK   30  A    between atoms: _66  and  _69
REMARK   31  A    between atoms: _69  and  _70
REMARK   32  A    between atoms: _72  and  _74
REMARK   33  A    between atoms: _74  and  _75
REMARK   34  A    between atoms: _74  and  _77
REMARK   35  A    between atoms: _77  and  _78
REMARK   36  A    between atoms: _81  and  _83
REMARK   37  A    between atoms: _83  and  _84
REMARK   38  A    between atoms: _87  and  _89
REMARK   39  A    between atoms: _89  and  _90
REMARK   40  A    between atoms: _89  and  _92
REMARK   41  A    between atoms: _92  and  _93
REMARK   42  A    between atoms: _93  and  _94
REMARK   43  A    between atoms: _94  and  _95
REMARK   44  A    between atoms: _95  and  _96
REMARK   45  A    between atoms: _100  and  _102
REMARK   46  A    between atoms: _102  and  _103
REMARK   47  A    between atoms: _102  and  _105
REMARK   48  A    between atoms: _105  and  _106
REMARK   49  A    between atoms: _109  and  _111
REMARK   50  A    between atoms: _111  and  _112
REMARK   51  A    between atoms: _111  and  _114
REMARK   52  A    between atoms: _114  and  _115
REMARK   53  A    between atoms: _115  and  _116
REMARK   54  A    between atoms: _118  and  _120
REMARK   55  A    between atoms: _120  and  _121
REMARK   56  A    between atoms: _120  and  _123
REMARK   57  A    between atoms: _123  and  _124
REMARK   58  A    between atoms: _130  and  _132
REMARK   59  A    between atoms: _132  and  _133
REMARK   60  A    between atoms: _136  and  _138
REMARK   61  A    between atoms: _138  and  _139
REMARK   62  A    between atoms: _138  and  _141
REMARK   63  A    between atoms: _141  and  _142
REMARK   64  A    between atoms: _147  and  _149
REMARK   65  A    between atoms: _149  and  _150
REMARK   66  A    between atoms: _149  and  _152
REMARK   67  A    between atoms: _152  and  _153
REMARK   68  A    between atoms: _156  and  _158
REMARK   69  A    between atoms: _158  and  _159
REMARK   70  A    between atoms: _158  and  _161
REMARK   71  A    between atoms: _161  and  _162
REMARK   72  A    between atoms: _162  and  _163
REMARK   73  A    between atoms: _168  and  _170
REMARK   74  A    between atoms: _170  and  _171
REMARK   75  A    between atoms: _170  and  _173
REMARK   76  A    between atoms: _173  and  _174
REMARK   77  A    between atoms: _178  and  _179
REMARK   78  A    between atoms: _184  and  _186
REMARK   79  A    between atoms: _186  and  _187
REMARK   80  A    between atoms: _186  and  _189
REMARK   81  A    between atoms: _189  and  _190
REMARK   82  A    between atoms: _195  and  _196
REMARK   83  A    between atoms: _198  and  _200
REMARK   84  A    between atoms: _200  and  _201
REMARK   85  A    between atoms: _200  and  _203
REMARK   86  A    between atoms: _203  and  _204
REMARK   87  A    between atoms: _207  and  _209
REMARK   88  A    between atoms: _209  and  _210
REMARK   89  A    between atoms: _209  and  _212
REMARK   90  A    between atoms: _212  and  _213
REMARK   91  A    between atoms: _215  and  _217
REMARK   92  A    between atoms: _217  and  _218
REMARK   93  A    between atoms: _217  and  _220
REMARK   94  A    between atoms: _220  and  _221
REMARK   95  A    between atoms: _226  and  _228
REMARK   96  A    between atoms: _228  and  _229
REMARK   97  A    between atoms: _228  and  _231
REMARK   98  A    between atoms: _231  and  _232
REMARK   99  A    between atoms: _235  and  _237
REMARK  100  A    between atoms: _237  and  _238
REMARK  101  A    between atoms: _237  and  _240
REMARK  102  A    between atoms: _240  and  _241
REMARK  103  A    between atoms: _252  and  _253
REMARK  104  A    between atoms: _258  and  _260
REMARK  105  A    between atoms: _260  and  _261
REMARK  106  A    between atoms: _260  and  _263
REMARK  107  A    between atoms: _263  and  _264
REMARK  108  A    between atoms: _267  and  _269
REMARK  109  A    between atoms: _269  and  _270
REMARK  110  A    between atoms: _269  and  _272
REMARK  111  A    between atoms: _272  and  _273
REMARK  112  A    between atoms: _278  and  _280
REMARK  113  A    between atoms: _280  and  _281
REMARK  114  A    between atoms: _283  and  _285
REMARK  115  A    between atoms: _285  and  _286
REMARK  116  A    between atoms: _285  and  _288
REMARK  117  A    between atoms: _288  and  _289
REMARK  118  A    between atoms: _299  and  _301
REMARK  119  A    between atoms: _301  and  _302
REMARK  120  A    between atoms: _301  and  _304
REMARK  121  A    between atoms: _304  and  _305
REMARK  122  A    between atoms: _310  and  _311
REMARK  123  A    between atoms: _313  and  _315
REMARK  124  A    between atoms: _315  and  _316
REMARK  125  A    between atoms: _315  and  _318
REMARK  126  A    between atoms: _318  and  _319
REMARK  127  A    between atoms: _322  and  _324
REMARK  128  A    between atoms: _324  and  _325
REMARK  129  A    between atoms: _324  and  _327
REMARK  130  A    between atoms: _327  and  _328
REMARK  131  A    between atoms: _333  and  _335
REMARK  132  A    between atoms: _335  and  _336
REMARK  133  A    between atoms: _335  and  _338
REMARK  134  A    between atoms: _338  and  _339
REMARK  135  A    between atoms: _344  and  _346
REMARK  136  A    between atoms: _346  and  _347
REMARK  137  A    between atoms: _346  and  _349
REMARK  138  A    between atoms: _349  and  _350
REMARK  139  A    between atoms: _350  and  _351
REMARK  140  A    between atoms: _354  and  _356
REMARK  141  A    between atoms: _356  and  _357
REMARK  142  A    between atoms: _359  and  _361
REMARK  143  A    between atoms: _361  and  _362
REMARK  144  A    between atoms: _361  and  _364
REMARK  145  A    between atoms: _364  and  _365
REMARK  146  A    between atoms: _367  and  _369
REMARK  147  A    between atoms: _369  and  _370
REMARK  148  A    between atoms: _369  and  _372
REMARK  149  A    between atoms: _372  and  _373
REMARK  150  A    between atoms: _378  and  _379
REMARK  151  A    between atoms: _381  and  _383
REMARK  152  A    between atoms: _383  and  _384
REMARK  153  A    between atoms: _383  and  _386
REMARK  154  A    between atoms: _386  and  _387
REMARK  155  A    between atoms: _392  and  _394
REMARK  156  A    between atoms: _394  and  _395
REMARK  157  A    between atoms: _397  and  _399
REMARK  158  A    between atoms: _399  and  _400
REMARK  159  A    between atoms: _399  and  _402
REMARK  160  A    between atoms: _402  and  _403
REMARK  161  A    between atoms: _408  and  _410
REMARK  162  A    between atoms: _410  and  _411
REMARK  163  A    between atoms: _410  and  _413
REMARK  164  A    between atoms: _413  and  _414
REMARK  165  A    between atoms: _424  and  _426
REMARK  166  A    between atoms: _426  and  _427
REMARK  167  A    between atoms: _426  and  _429
REMARK  168  A    between atoms: _429  and  _430
REMARK  169  A    between atoms: _435  and  _437
REMARK  170  A    between atoms: _437  and  _438
REMARK  171  A    between atoms: _437  and  _440
REMARK  172  A    between atoms: _440  and  _441
REMARK  173  A    between atoms: _441  and  _442
REMARK  174  A    between atoms: _442  and  _443
REMARK  175  A    between atoms: _443  and  _444
REMARK  176  A    between atoms: _448  and  _450
REMARK  177  A    between atoms: _450  and  _451
REMARK  178  A    between atoms: _450  and  _453
REMARK  179  A    between atoms: _453  and  _454
REMARK  180  A    between atoms: _460  and  _462
REMARK  181  A    between atoms: _462  and  _463
REMARK  182  A    between atoms: _465  and  _467
REMARK  183  A    between atoms: _467  and  _468
REMARK  184  A    between atoms: _467  and  _470
REMARK  185  A    between atoms: _470  and  _471
REMARK  186  A    between atoms: _473  and  _475
REMARK  187  A    between atoms: _475  and  _476
REMARK  188  A    between atoms: _475  and  _478
REMARK  189  A    between atoms: _478  and  _479
REMARK  190  A    between atoms: _479  and  _480
REMARK  191  A    between atoms: _480  and  _481
REMARK  192  A    between atoms: _481  and  _482
REMARK  193  A    between atoms: _486  and  _488
REMARK  194  A    between atoms: _488  and  _489
REMARK  195  A    between atoms: _488  and  _491
REMARK  196  A    between atoms: _491  and  _492
REMARK  197  A    between atoms: _497  and  _499
REMARK  198  A    between atoms: _499  and  _500
REMARK  199  A    between atoms: _499  and  _502
REMARK  200  A    between atoms: _502  and  _503
REMARK  201  A    between atoms: _503  and  _504
REMARK  202  A    between atoms: _504  and  _505
REMARK  203  A    between atoms: _514  and  _516
REMARK  204  A    between atoms: _516  and  _517
REMARK  205  A    between atoms: _516  and  _519
REMARK  206  A    between atoms: _519  and  _520
REMARK  207  A    between atoms: _520  and  _521
REMARK  208  A    between atoms: _526  and  _528
REMARK  209  A    between atoms: _528  and  _529
REMARK  210  A    between atoms: _528  and  _531
REMARK  211  A    between atoms: _531  and  _532
REMARK  212  A    between atoms: _532  and  _533
REMARK  213  A    between atoms: _538  and  _540
REMARK  214  A    between atoms: _540  and  _541
REMARK  215  A    between atoms: _540  and  _543
REMARK  216  A    between atoms: _543  and  _544
REMARK  217  A    between atoms: _544  and  _545
REMARK  218  A    between atoms: _547  and  _549
REMARK  219  A    between atoms: _549  and  _550
REMARK  220  A    between atoms: _549  and  _552
REMARK  221  A    between atoms: _552  and  _553
REMARK  222  A    between atoms: _555  and  _557
REMARK  223  A    between atoms: _557  and  _558
REMARK  224  A    between atoms: _557  and  _560
REMARK  225  A    between atoms: _560  and  _561
REMARK  226  A    between atoms: _566  and  _567
REMARK  227  A    between atoms: _569  and  _571
REMARK  228  A    between atoms: _571  and  _572
REMARK  229  A    between atoms: _571  and  _574
REMARK  230  A    between atoms: _574  and  _575
REMARK  231  A    between atoms: _585  and  _587
REMARK  232  A    between atoms: _587  and  _588
REMARK  233  A    between atoms: _587  and  _590
REMARK  234  A    between atoms: _590  and  _591
REMARK  235  A    between atoms: _594  and  _596
REMARK  236  A    between atoms: _596  and  _597
REMARK  237  A    between atoms: _600  and  _602
REMARK  238  A    between atoms: _602  and  _603
REMARK  239  A    between atoms: _602  and  _605
REMARK  240  A    between atoms: _605  and  _606
REMARK                            x       y       z     vdW  Elec       q    Type
REMARK                         _______ _______ _______ _____ _____    ______ ____
ROOT
ATOM      1  C   ASN A   2     -26.928   1.077  -6.955  0.00  0.00    +0.241 C 
ATOM      2  O   ASN A   2     -26.781   1.845  -5.982  0.00  0.00    -0.273 OA
ATOM      3  N   GLU A   3     -28.101   0.886  -7.546  0.00  0.00    -0.297 N 
ATOM      4  H   GLU A   3     -28.196   0.208  -8.329  0.00  0.00    +0.150 HD
ENDROOT
BRANCH   3   5
ATOM      5  CA  GLU A   3     -29.257   1.647  -7.076  0.00  0.00    +0.149 C 
BRANCH   5   6
ATOM      6  C   GLU A   3     -30.260   0.821  -6.272  0.00  0.00    +0.241 C 
ATOM      7  N   GLY A   4     -29.886  -0.398  -5.896  0.00  0.00    -0.295 N 
ATOM      8  H   GLY A   4     -29.054  -0.843  -6.333  0.00  0.00    +0.150 HD
ATOM      9  O   GLU A   3     -31.345   1.290  -5.959  0.00  0.00    -0.273 OA
BRANCH   7  10
ATOM     10  CA  GLY A   4     -30.630  -1.103  -4.885  0.00  0.00    +0.176 C 
BRANCH  10  11
ATOM     11  C   GLY A   4     -31.876  -1.842  -5.323  0.00  0.00    +0.243 C 
ATOM     12  O   GLY A   4     -32.671  -2.242  -4.476  0.00  0.00    -0.273 OA
ATOM     13  N   SER A   5     -32.050  -2.038  -6.622  0.00  0.00    -0.296 N 
ATOM     14  H   SER A   5     -31.388  -1.634  -7.315  0.00  0.00    +0.150 HD
BRANCH  13  15
ATOM     15  CA  SER A   5     -33.201  -2.841  -7.059  0.00  0.00    +0.166 C 
BRANCH  15  16
ATOM     16  CB  SER A   5     -32.973  -4.300  -6.723  0.00  0.00    +0.229 C 
ATOM     17  OG  SER A   5     -33.933  -5.029  -6.465  0.00  0.00    -0.286 OA
ENDBRANCH  15  16
BRANCH  15  18
ATOM     18  C   SER A   5     -33.472  -2.658  -8.542  0.00  0.00    +0.165 C 
BRANCH  18  19
ATOM     19  O   SER A   5     -32.389  -3.089  -9.343  0.00  0.00    -0.380 OA
ATOM     20  H   SER A   5     -31.581  -2.566  -9.112  0.00  0.00    +0.211 HD
ENDBRANCH  18  19
ENDBRANCH  15  18
ENDBRANCH  13  15
ENDBRANCH  10  11
ENDBRANCH   7  10
ENDBRANCH   5   6
BRANCH   5  21
ATOM     21  CB  GLU A   3     -29.913   2.336  -8.259  0.00  0.00    +0.041 C 
BRANCH  21  22
ATOM     22  CG  GLU A   3     -29.060   3.539  -8.664  0.00  0.00    +0.116 C 
BRANCH  22  23
ATOM     23  CD  GLU A   3     -29.719   4.417  -9.688  0.00  0.00    +0.365 C 
ATOM     24  OE2 GLU A   3     -29.476   5.639  -9.639  0.00  0.00    -0.246 OA
ATOM     25  OE1 GLU A   3     -30.477   3.890 -10.531  0.00  0.00    -0.246 OA
ENDBRANCH  22  23
ENDBRANCH  21  22
ENDBRANCH   5  21
ENDBRANCH   3   5
BRANCH   1  26
ATOM     26  CA  ASN A   2     -25.745   0.304  -7.492  0.00  0.00    +0.158 C 
BRANCH  26  29
ATOM     27  C   ASN A   1     -26.577  -1.886  -6.841  0.00  0.00    +0.239 C 
ATOM     28  O   ASN A   1     -27.024  -1.454  -5.771  0.00  0.00    -0.274 OA
ATOM     29  N   ASN A   2     -26.034  -1.101  -7.763  0.00  0.00    -0.297 N 
ATOM     30  H   ASN A   2     -25.810  -1.495  -8.699  0.00  0.00    +0.150 HD
BRANCH  27  31
ATOM     31  CA  ASN A   1     -26.500  -3.393  -7.140  0.00  0.00    +0.154 C 
BRANCH  31  32
ATOM     32  N   ASN A   1     -26.918  -4.155  -5.978  0.00  0.00    -0.238 NA
ATOM     33  H   ASN A   1     -27.909  -4.454  -5.878  0.00  0.00    +0.142 HD
ENDBRANCH  31  32
BRANCH  31  34
ATOM     34  CB  ASN A   1     -27.291  -3.795  -8.407  0.00  0.00    +0.111 C 
BRANCH  34  35
ATOM     35  CG  ASN A   1     -28.780  -3.565  -8.307  0.00  0.00    +0.221 C 
ATOM     36  OD1 ASN A   1     -29.317  -3.142  -7.283  0.00  0.00    -0.275 OA
ATOM     37  ND2 ASN A   1     -29.469  -3.873  -9.398  0.00  0.00    -0.329 N 
ATOM     38 HD21 ASN A   1     -30.503  -3.760  -9.409  0.00  0.00    +0.145 HD
ATOM     39 HD22 ASN A   1     -28.975  -4.227 -10.242  0.00  0.00    +0.145 HD
ENDBRANCH  34  35
ENDBRANCH  31  34
ENDBRANCH  27  31
ENDBRANCH  26  29
BRANCH  26  40
ATOM     40  CB  ASN A   2     -25.233   0.945  -8.767  0.00  0.00    +0.114 C 
BRANCH  40  41
ATOM     41  CG  ASN A   2     -24.703   2.335  -8.545  0.00  0.00    +0.222 C 
ATOM     42  ND2 ASN A   2     -23.456   2.430  -8.120  0.00  0.00    -0.329 N 
ATOM     43 HD21 ASN A   2     -22.905   1.569  -7.927  0.00  0.00    +0.145 HD
ATOM     44 HD22 ASN A   2     -23.025   3.366  -7.979  0.00  0.00    +0.145 HD
ATOM     45  OD1 ASN A   2     -25.400   3.322  -8.789  0.00  0.00    -0.275 OA
ENDBRANCH  40  41
ENDBRANCH  26  40
ENDBRANCH   1  26
TORSDOF 19
REMARK  Name = ../refined-set-2016/4ua8/4ua8_pocket.pdb
REMARK  240 active torsions:
REMARK  status: ('A' for Active; 'I' for Inactive)
REMARK    1  A    between atoms: _1  and  _3
REMARK    2  A    between atoms: _3  and  _4
REMARK    3  A    between atoms: _7  and  _8
REMARK    4  A    between atoms: _13  and  _15
REMARK    5  A    between atoms: _15  and  _16
REMARK    6  A    between atoms: _19  and  _21
REMARK    7  A    between atoms: _21  and  _22
REMARK    8  A    between atoms: _21  and  _24
REMARK    9  A    between atoms: _24  and  _25
REMARK   10  A    between atoms: _25  and  _26
REMARK   11  A    between atoms: _29  and  _31
REMARK   12  A    between atoms: _31  and  _32
REMARK   13  A    between atoms: _31  and  _34
REMARK   14  A    between atoms: _34  and  _35
REMARK   15  A    between atoms: _38  and  _40
REMARK   16  A    between atoms: _40  and  _41
REMARK   17  A    between atoms: _40  and  _43
REMARK   18  A    between atoms: _43  and  _44
REMARK   19  A    between atoms: _46  and  _48
REMARK   20  A    between atoms: _48  and  _49
REMARK   21  A    between atoms: _48  and  _51
REMARK   22  A    between atoms: _51  and  _52
REMARK   23  A    between atoms: _54  and  _56
REMARK   24  A    between atoms: _56  and  _57
REMARK   25  A    between atoms: _56  and  _59
REMARK   26  A    between atoms: _59  and  _60
REMARK   27  A    between atoms: _60  and  _61
REMARK   28  A    between atoms: _64  and  _66
REMARK   29  A    between atoms: _66  and  _67
REMARK   30  A    between atoms: _66  and  _69
REMARK   31  A    between atoms: _69  and  _70
REMARK   32  A    between atoms: _72  and  _74
REMARK   33  A    between atoms: _74  and  _75
REMARK   34  A    between atoms: _74  and  _77
REMARK   35  A    between atoms: _77  and  _78
REMARK   36  A    between atoms: _81  and  _83
REMARK   37  A    between atoms: _83  and  _84
REMARK   38  A    between atoms: _87  and  _89
REMARK   39  A    between atoms: _89  and  _90
REMARK   40  A    between atoms: _89  and  _92
REMARK   41  A    between atoms: _92  and  _93
REMARK   42  A    between atoms: _93  and  _94
REMARK   43  A    between atoms: _94  and  _95
REMARK   44  A    between atoms: _95  and  _96
REMARK   45  A    between atoms: _100  and  _102
REMARK   46  A    between atoms: _102  and  _103
REMARK   47  A    between atoms: _102  and  _105
REMARK   48  A    between atoms: _105  and  _106
REMARK   49  A    between atoms: _109  and  _111
REMARK   50  A    between atoms: _111  and  _112
REMARK   51  A    between atoms: _111  and  _114
REMARK   52  A    between atoms: _114  and  _115
REMARK   53  A    between atoms: _115  and  _116
REMARK   54  A    between atoms: _118  and  _120
REMARK   55  A    between atoms: _120  and  _121
REMARK   56  A    between atoms: _120  and  _123
REMARK   57  A    between atoms: _123  and  _124
REMARK   58  A    between atoms: _130  and  _132
REMARK   59  A    between atoms: _132  and  _133
REMARK   60  A    between atoms: _136  and  _138
REMARK   61  A    between atoms: _138  and  _139
REMARK   62  A    between atoms: _138  and  _141
REMARK   63  A    between atoms: _141  and  _142
REMARK   64  A    between atoms: _147  and  _149
REMARK   65  A    between atoms: _149  and  _150
REMARK   66  A    between atoms: _149  and  _152
REMARK   67  A    between atoms: _152  and  _153
REMARK   68  A    between atoms: _156  and  _158
REMARK   69  A    between atoms: _158  and  _159
REMARK   70  A    between atoms: _158  and  _161
REMARK   71  A    between atoms: _161  and  _162
REMARK   72  A    between atoms: _162  and  _163
REMARK   73  A    between atoms: _168  and  _170
REMARK   74  A    between atoms: _170  and  _171
REMARK   75  A    between atoms: _170  and  _173
REMARK   76  A    between atoms: _173  and  _174
REMARK   77  A    between atoms: _178  and  _179
REMARK   78  A    between atoms: _184  and  _186
REMARK   79  A    between atoms: _186  and  _187
REMARK   80  A    between atoms: _186  and  _189
REMARK   81  A    between atoms: _189  and  _190
REMARK   82  A    between atoms: _195  and  _196
REMARK   83  A    between atoms: _198  and  _200
REMARK   84  A    between atoms: _200  and  _201
REMARK   85  A    between atoms: _200  and  _203
REMARK   86  A    between atoms: _203  and  _204
REMARK   87  A    between atoms: _207  and  _209
REMARK   88  A    between atoms: _209  and  _210
REMARK   89  A    between atoms: _209  and  _212
REMARK   90  A    between atoms: _212  and  _213
REMARK   91  A    between atoms: _215  and  _217
REMARK   92  A    between atoms: _217  and  _218
REMARK   93  A    between atoms: _217  and  _220
REMARK   94  A    between atoms: _220  and  _221
REMARK   95  A    between atoms: _226  and  _228
REMARK   96  A    between atoms: _228  and  _229
REMARK   97  A    between atoms: _228  and  _231
REMARK   98  A    between atoms: _231  and  _232
REMARK   99  A    between atoms: _235  and  _237
REMARK  100  A    between atoms: _237  and  _238
REMARK  101  A    between atoms: _237  and  _240
REMARK  102  A    between atoms: _240  and  _241
REMARK  103  A    between atoms: _252  and  _253
REMARK  104  A    between atoms: _258  and  _260
REMARK  105  A    between atoms: _260  and  _261
REMARK  106  A    between atoms: _260  and  _263
REMARK  107  A    between atoms: _263  and  _264
REMARK  108  A    between atoms: _267  and  _269
REMARK  109  A    between atoms: _269  and  _270
REMARK  110  A    between atoms: _269  and  _272
REMARK  111  A    between atoms: _272  and  _273
REMARK  112  A    between atoms: _278  and  _280
REMARK  113  A    between atoms: _280  and  _281
REMARK  114  A    between atoms: _283  and  _285
REMARK  115  A    between atoms: _285  and  _286
REMARK  116  A    between atoms: _285  and  _288
REMARK  117  A    between atoms: _288  and  _289
REMARK  118  A    between atoms: _299  and  _301
REMARK  119  A    between atoms: _301  and  _302
REMARK  120  A    between atoms: _301  and  _304
REMARK  121  A    between atoms: _304  and  _305
REMARK  122  A    between atoms: _310  and  _311
REMARK  123  A    between atoms: _313  and  _315
REMARK  124  A    between atoms: _315  and  _316
REMARK  125  A    between atoms: _315  and  _318
REMARK  126  A    between atoms: _318  and  _319
REMARK  127  A    between atoms: _322  and  _324
REMARK  128  A    between atoms: _324  and  _325
REMARK  129  A    between atoms: _324  and  _327
REMARK  130  A    between atoms: _327  and  _328
REMARK  131  A    between atoms: _333  and  _335
REMARK  132  A    between atoms: _335  and  _336
REMARK  133  A    between atoms: _335  and  _338
REMARK  134  A    between atoms: _338  and  _339
REMARK  135  A    between atoms: _344  and  _346
REMARK  136  A    between atoms: _346  and  _347
REMARK  137  A    between atoms: _346  and  _349
REMARK  138  A    between atoms: _349  and  _350
REMARK  139  A    between atoms: _350  and  _351
REMARK  140  A    between atoms: _354  and  _356
REMARK  141  A    between atoms: _356  and  _357
REMARK  142  A    between atoms: _359  and  _361
REMARK  143  A    between atoms: _361  and  _362
REMARK  144  A    between atoms: _361  and  _364
REMARK  145  A    between atoms: _364  and  _365
REMARK  146  A    between atoms: _367  and  _369
REMARK  147  A    between atoms: _369  and  _370
REMARK  148  A    between atoms: _369  and  _372
REMARK  149  A    between atoms: _372  and  _373
REMARK  150  A    between atoms: _378  and  _379
REMARK  151  A    between atoms: _381  and  _383
REMARK  152  A    between atoms: _383  and  _384
REMARK  153  A    between atoms: _383  and  _386
REMARK  154  A    between atoms: _386  and  _387
REMARK  155  A    between atoms: _392  and  _394
REMARK  156  A    between atoms: _394  and  _395
REMARK  157  A    between atoms: _397  and  _399
REMARK  158  A    between atoms: _399  and  _400
REMARK  159  A    between atoms: _399  and  _402
REMARK  160  A    between atoms: _402  and  _403
REMARK  161  A    between atoms: _408  and  _410
REMARK  162  A    between atoms: _410  and  _411
REMARK  163  A    between atoms: _410  and  _413
REMARK  164  A    between atoms: _413  and  _414
REMARK  165  A    between atoms: _424  and  _426
REMARK  166  A    between atoms: _426  and  _427
REMARK  167  A    between atoms: _426  and  _429
REMARK  168  A    between atoms: _429  and  _430
REMARK  169  A    between atoms: _435  and  _437
REMARK  170  A    between atoms: _437  and  _438
REMARK  171  A    between atoms: _437  and  _440
REMARK  172  A    between atoms: _440  and  _441
REMARK  173  A    between atoms: _441  and  _442
REMARK  174  A    between atoms: _442  and  _443
REMARK  175  A    between atoms: _443  and  _444
REMARK  176  A    between atoms: _448  and  _450
REMARK  177  A    between atoms: _450  and  _451
REMARK  178  A    between atoms: _450  and  _453
REMARK  179  A    between atoms: _453  and  _454
REMARK  180  A    between atoms: _460  and  _462
REMARK  181  A    between atoms: _462  and  _463
REMARK  182  A    between atoms: _465  and  _467
REMARK  183  A    between atoms: _467  and  _468
REMARK  184  A    between atoms: _467  and  _470
REMARK  185  A    between atoms: _470  and  _471
REMARK  186  A    between atoms: _473  and  _475
REMARK  187  A    between atoms: _475  and  _476
REMARK  188  A    between atoms: _475  and  _478
REMARK  189  A    between atoms: _478  and  _479
REMARK  190  A    between atoms: _479  and  _480
REMARK  191  A    between atoms: _480  and  _481
REMARK  192  A    between atoms: _481  and  _482
REMARK  193  A    between atoms: _486  and  _488
REMARK  194  A    between atoms: _488  and  _489
REMARK  195  A    between atoms: _488  and  _491
REMARK  196  A    between atoms: _491  and  _492
REMARK  197  A    between atoms: _497  and  _499
REMARK  198  A    between atoms: _499  and  _500
REMARK  199  A    between atoms: _499  and  _502
REMARK  200  A    between atoms: _502  and  _503
REMARK  201  A    between atoms: _503  and  _504
REMARK  202  A    between atoms: _504  and  _505
REMARK  203  A    between atoms: _514  and  _516
REMARK  204  A    between atoms: _516  and  _517
REMARK  205  A    between atoms: _516  and  _519
REMARK  206  A    between atoms: _519  and  _520
REMARK  207  A    between atoms: _520  and  _521
REMARK  208  A    between atoms: _526  and  _528
REMARK  209  A    between atoms: _528  and  _529
REMARK  210  A    between atoms: _528  and  _531
REMARK  211  A    between atoms: _531  and  _532
REMARK  212  A    between atoms: _532  and  _533
REMARK  213  A    between atoms: _538  and  _540
REMARK  214  A    between atoms: _540  and  _541
REMARK  215  A    between atoms: _540  and  _543
REMARK  216  A    between atoms: _543  and  _544
REMARK  217  A    between atoms: _544  and  _545
REMARK  218  A    between atoms: _547  and  _549
REMARK  219  A    between atoms: _549  and  _550
REMARK  220  A    between atoms: _549  and  _552
REMARK  221  A    between atoms: _552  and  _553
REMARK  222  A    between atoms: _555  and  _557
REMARK  223  A    between atoms: _557  and  _558
REMARK  224  A    between atoms: _557  and  _560
REMARK  225  A    between atoms: _560  and  _561
REMARK  226  A    between atoms: _566  and  _567
REMARK  227  A    between atoms: _569  and  _571
REMARK  228  A    between atoms: _571  and  _572
REMARK  229  A    between atoms: _571  and  _574
REMARK  230  A    between atoms: _574  and  _575
REMARK  231  A    between atoms: _585  and  _587
REMARK  232  A    between atoms: _587  and  _588
REMARK  233  A    between atoms: _587  and  _590
REMARK  234  A    between atoms: _590  and  _591
REMARK  235  A    between atoms: _594  and  _596
REMARK  236  A    between atoms: _596  and  _597
REMARK  237  A    between atoms: _600  and  _602
REMARK  238  A    between atoms: _602  and  _603
REMARK  239  A    between atoms: _602  and  _605
REMARK  240  A    between atoms: _605  and  _606
REMARK                            x       y       z     vdW  Elec       q    Type
REMARK                         _______ _______ _______ _____ _____    ______ ____
ROOT
ATOM      1  CG  TYR A   1     -32.680  -2.902   1.046  0.00  0.00    -0.020 A 
ATOM      2  CD2 TYR A   1     -33.811  -2.098   0.962  0.00  0.00    -0.001 A 
ATOM      3  CE2 TYR A   1     -34.110  -1.380  -0.162  0.00  0.00    +0.036 A 
ATOM      4  CZ  TYR A   1     -33.283  -1.442  -1.263  0.00  0.00    +0.134 A 
ATOM      5  CE1 TYR A   1     -32.148  -2.229  -1.230  0.00  0.00    +0.036 A 
ATOM      6  CD1 TYR A   1     -31.857  -2.968  -0.064  0.00  0.00    -0.001 A 
ENDROOT
BRANCH   4   7
ATOM      7  OH  TYR A   1     -33.598  -0.743  -2.388  0.00  0.00    -0.506 OA
ATOM      8  HH  TYR A   1     -32.904  -0.898  -3.077  0.00  0.00    +0.292 HD
ENDBRANCH   4   7
BRANCH   1   9
ATOM      9  CB  TYR A   1     -32.456  -3.764   2.265  0.00  0.00    +0.051 C 
BRANCH   9  10
ATOM     10  CA  TYR A   1     -31.063  -3.806   2.891  0.00  0.00    +0.137 C 
BRANCH  10  11
ATOM     11  N   TYR A   1     -31.111  -4.666   4.071  0.00  0.00    -0.239 NA
ATOM     12  H   TYR A   1     -31.490  -4.257   4.949  0.00  0.00    +0.142 HD
ENDBRANCH  10  11
BRANCH  10  13
ATOM     13  C   TYR A   1     -30.638  -2.429   3.352  0.00  0.00    +0.224 C 
ATOM     14  O   TYR A   1     -31.292  -1.841   4.205  0.00  0.00    -0.287 OA
ENDBRANCH  10  13
ENDBRANCH   9  10
ENDBRANCH   1   9
TORSDOF 5
REMARK  Name = ../refined-set-2016/4ua8/4ua8_pocket.pdb
REMARK  240 active torsions:
REMARK  status: ('A' for Active; 'I' for Inactive)
REMARK    1  A    between atoms: _1  and  _3
REMARK    2  A    between atoms: _3  and  _4
REMARK    3  A    between atoms: _7  and  _8
REMARK    4  A    between atoms: _13  and  _15
REMARK    5  A    between atoms: _15  and  _16
REMARK    6  A    between atoms: _19  and  _21
REMARK    7  A    between atoms: _21  and  _22
REMARK    8  A    between atoms: _21  and  _24
REMARK    9  A    between atoms: _24  and  _25
REMARK   10  A    between atoms: _25  and  _26
REMARK   11  A    between atoms: _29  and  _31
REMARK   12  A    between atoms: _31  and  _32
REMARK   13  A    between atoms: _31  and  _34
REMARK   14  A    between atoms: _34  and  _35
REMARK   15  A    between atoms: _38  and  _40
REMARK   16  A    between atoms: _40  and  _41
REMARK   17  A    between atoms: _40  and  _43
REMARK   18  A    between atoms: _43  and  _44
REMARK   19  A    between atoms: _46  and  _48
REMARK   20  A    between atoms: _48  and  _49
REMARK   21  A    between atoms: _48  and  _51
REMARK   22  A    between atoms: _51  and  _52
REMARK   23  A    between atoms: _54  and  _56
REMARK   24  A    between atoms: _56  and  _57
REMARK   25  A    between atoms: _56  and  _59
REMARK   26  A    between atoms: _59  and  _60
REMARK   27  A    between atoms: _60  and  _61
REMARK   28  A    between atoms: _64  and  _66
REMARK   29  A    between atoms: _66  and  _67
REMARK   30  A    between atoms: _66  and  _69
REMARK   31  A    between atoms: _69  and  _70
REMARK   32  A    between atoms: _72  and  _74
REMARK   33  A    between atoms: _74  and  _75
REMARK   34  A    between atoms: _74  and  _77
REMARK   35  A    between atoms: _77  and  _78
REMARK   36  A    between atoms: _81  and  _83
REMARK   37  A    between atoms: _83  and  _84
REMARK   38  A    between atoms: _87  and  _89
REMARK   39  A    between atoms: _89  and  _90
REMARK   40  A    between atoms: _89  and  _92
REMARK   41  A    between atoms: _92  and  _93
REMARK   42  A    between atoms: _93  and  _94
REMARK   43  A    between atoms: _94  and  _95
REMARK   44  A    between atoms: _95  and  _96
REMARK   45  A    between atoms: _100  and  _102
REMARK   46  A    between atoms: _102  and  _103
REMARK   47  A    between atoms: _102  and  _105
REMARK   48  A    between atoms: _105  and  _106
REMARK   49  A    between atoms: _109  and  _111
REMARK   50  A    between atoms: _111  and  _112
REMARK   51  A    between atoms: _111  and  _114
REMARK   52  A    between atoms: _114  and  _115
REMARK   53  A    between atoms: _115  and  _116
REMARK   54  A    between atoms: _118  and  _120
REMARK   55  A    between atoms: _120  and  _121
REMARK   56  A    between atoms: _120  and  _123
REMARK   57  A    between atoms: _123  and  _124
REMARK   58  A    between atoms: _130  and  _132
REMARK   59  A    between atoms: _132  and  _133
REMARK   60  A    between atoms: _136  and  _138
REMARK   61  A    between atoms: _138  and  _139
REMARK   62  A    between atoms: _138  and  _141
REMARK   63  A    between atoms: _141  and  _142
REMARK   64  A    between atoms: _147  and  _149
REMARK   65  A    between atoms: _149  and  _150
REMARK   66  A    between atoms: _149  and  _152
REMARK   67  A    between atoms: _152  and  _153
REMARK   68  A    between atoms: _156  and  _158
REMARK   69  A    between atoms: _158  and  _159
REMARK   70  A    between atoms: _158  and  _161
REMARK   71  A    between atoms: _161  and  _162
REMARK   72  A    between atoms: _162  and  _163
REMARK   73  A    between atoms: _168  and  _170
REMARK   74  A    between atoms: _170  and  _171
REMARK   75  A    between atoms: _170  and  _173
REMARK   76  A    between atoms: _173  and  _174
REMARK   77  A    between atoms: _178  and  _179
REMARK   78  A    between atoms: _184  and  _186
REMARK   79  A    between atoms: _186  and  _187
REMARK   80  A    between atoms: _186  and  _189
REMARK   81  A    between atoms: _189  and  _190
REMARK   82  A    between atoms: _195  and  _196
REMARK   83  A    between atoms: _198  and  _200
REMARK   84  A    between atoms: _200  and  _201
REMARK   85  A    between atoms: _200  and  _203
REMARK   86  A    between atoms: _203  and  _204
REMARK   87  A    between atoms: _207  and  _209
REMARK   88  A    between atoms: _209  and  _210
REMARK   89  A    between atoms: _209  and  _212
REMARK   90  A    between atoms: _212  and  _213
REMARK   91  A    between atoms: _215  and  _217
REMARK   92  A    between atoms: _217  and  _218
REMARK   93  A    between atoms: _217  and  _220
REMARK   94  A    between atoms: _220  and  _221
REMARK   95  A    between atoms: _226  and  _228
REMARK   96  A    between atoms: _228  and  _229
REMARK   97  A    between atoms: _228  and  _231
REMARK   98  A    between atoms: _231  and  _232
REMARK   99  A    between atoms: _235  and  _237
REMARK  100  A    between atoms: _237  and  _238
REMARK  101  A    between atoms: _237  and  _240
REMARK  102  A    between atoms: _240  and  _241
REMARK  103  A    between atoms: _252  and  _253
REMARK  104  A    between atoms: _258  and  _260
REMARK  105  A    between atoms: _260  and  _261
REMARK  106  A    between atoms: _260  and  _263
REMARK  107  A    between atoms: _263  and  _264
REMARK  108  A    between atoms: _267  and  _269
REMARK  109  A    between atoms: _269  and  _270
REMARK  110  A    between atoms: _269  and  _272
REMARK  111  A    between atoms: _272  and  _273
REMARK  112  A    between atoms: _278  and  _280
REMARK  113  A    between atoms: _280  and  _281
REMARK  114  A    between atoms: _283  and  _285
REMARK  115  A    between atoms: _285  and  _286
REMARK  116  A    between atoms: _285  and  _288
REMARK  117  A    between atoms: _288  and  _289
REMARK  118  A    between atoms: _299  and  _301
REMARK  119  A    between atoms: _301  and  _302
REMARK  120  A    between atoms: _301  and  _304
REMARK  121  A    between atoms: _304  and  _305
REMARK  122  A    between atoms: _310  and  _311
REMARK  123  A    between atoms: _313  and  _315
REMARK  124  A    between atoms: _315  and  _316
REMARK  125  A    between atoms: _315  and  _318
REMARK  126  A    between atoms: _318  and  _319
REMARK  127  A    between atoms: _322  and  _324
REMARK  128  A    between atoms: _324  and  _325
REMARK  129  A    between atoms: _324  and  _327
REMARK  130  A    between atoms: _327  and  _328
REMARK  131  A    between atoms: _333  and  _335
REMARK  132  A    between atoms: _335  and  _336
REMARK  133  A    between atoms: _335  and  _338
REMARK  134  A    between atoms: _338  and  _339
REMARK  135  A    between atoms: _344  and  _346
REMARK  136  A    between atoms: _346  and  _347
REMARK  137  A    between atoms: _346  and  _349
REMARK  138  A    between atoms: _349  and  _350
REMARK  139  A    between atoms: _350  and  _351
REMARK  140  A    between atoms: _354  and  _356
REMARK  141  A    between atoms: _356  and  _357
REMARK  142  A    between atoms: _359  and  _361
REMARK  143  A    between atoms: _361  and  _362
REMARK  144  A    between atoms: _361  and  _364
REMARK  145  A    between atoms: _364  and  _365
REMARK  146  A    between atoms: _367  and  _369
REMARK  147  A    between atoms: _369  and  _370
REMARK  148  A    between atoms: _369  and  _372
REMARK  149  A    between atoms: _372  and  _373
REMARK  150  A    between atoms: _378  and  _379
REMARK  151  A    between atoms: _381  and  _383
REMARK  152  A    between atoms: _383  and  _384
REMARK  153  A    between atoms: _383  and  _386
REMARK  154  A    between atoms: _386  and  _387
REMARK  155  A    between atoms: _392  and  _394
REMARK  156  A    between atoms: _394  and  _395
REMARK  157  A    between atoms: _397  and  _399
REMARK  158  A    between atoms: _399  and  _400
REMARK  159  A    between atoms: _399  and  _402
REMARK  160  A    between atoms: _402  and  _403
REMARK  161  A    between atoms: _408  and  _410
REMARK  162  A    between atoms: _410  and  _411
REMARK  163  A    between atoms: _410  and  _413
REMARK  164  A    between atoms: _413  and  _414
REMARK  165  A    between atoms: _424  and  _426
REMARK  166  A    between atoms: _426  and  _427
REMARK  167  A    between atoms: _426  and  _429
REMARK  168  A    between atoms: _429  and  _430
REMARK  169  A    between atoms: _435  and  _437
REMARK  170  A    between atoms: _437  and  _438
REMARK  171  A    between atoms: _437  and  _440
REMARK  172  A    between atoms: _440  and  _441
REMARK  173  A    between atoms: _441  and  _442
REMARK  174  A    between atoms: _442  and  _443
REMARK  175  A    between atoms: _443  and  _444
REMARK  176  A    between atoms: _448  and  _450
REMARK  177  A    between atoms: _450  and  _451
REMARK  178  A    between atoms: _450  and  _453
REMARK  179  A    between atoms: _453  and  _454
REMARK  180  A    between atoms: _460  and  _462
REMARK  181  A    between atoms: _462  and  _463
REMARK  182  A    between atoms: _465  and  _467
REMARK  183  A    between atoms: _467  and  _468
REMARK  184  A    between atoms: _467  and  _470
REMARK  185  A    between atoms: _470  and  _471
REMARK  186  A    between atoms: _473  and  _475
REMARK  187  A    between atoms: _475  and  _476
REMARK  188  A    between atoms: _475  and  _478
REMARK  189  A    between atoms: _478  and  _479
REMARK  190  A    between atoms: _479  and  _480
REMARK  191  A    between atoms: _480  and  _481
REMARK  192  A    between atoms: _481  and  _482
REMARK  193  A    between atoms: _486  and  _488
REMARK  194  A    between atoms: _488  and  _489
REMARK  195  A    between atoms: _488  and  _491
REMARK  196  A    between atoms: _491  and  _492
REMARK  197  A    between atoms: _497  and  _499
REMARK  198  A    between atoms: _499  and  _500
REMARK  199  A    between atoms: _499  and  _502
REMARK  200  A    between atoms: _502  and  _503
REMARK  201  A    between atoms: _503  and  _504
REMARK  202  A    between atoms: _504  and  _505
REMARK  203  A    between atoms: _514  and  _516
REMARK  204  A    between atoms: _516  and  _517
REMARK  205  A    between atoms: _516  and  _519
REMARK  206  A    between atoms: _519  and  _520
REMARK  207  A    between atoms: _520  and  _521
REMARK  208  A    between atoms: _526  and  _528
REMARK  209  A    between atoms: _528  and  _529
REMARK  210  A    between atoms: _528  and  _531
REMARK  211  A    between atoms: _531  and  _532
REMARK  212  A    between atoms: _532  and  _533
REMARK  213  A    between atoms: _538  and  _540
REMARK  214  A    between atoms: _540  and  _541
REMARK  215  A    between atoms: _540  and  _543
REMARK  216  A    between atoms: _543  and  _544
REMARK  217  A    between atoms: _544  and  _545
REMARK  218  A    between atoms: _547  and  _549
REMARK  219  A    between atoms: _549  and  _550
REMARK  220  A    between atoms: _549  and  _552
REMARK  221  A    between atoms: _552  and  _553
REMARK  222  A    between atoms: _555  and  _557
REMARK  223  A    between atoms: _557  and  _558
REMARK  224  A    between atoms: _557  and  _560
REMARK  225  A    between atoms: _560  and  _561
REMARK  226  A    between atoms: _566  and  _567
REMARK  227  A    between atoms: _569  and  _571
REMARK  228  A    between atoms: _571  and  _572
REMARK  229  A    between atoms: _571  and  _574
REMARK  230  A    between atoms: _574  and  _575
REMARK  231  A    between atoms: _585  and  _587
REMARK  232  A    between atoms: _587  and  _588
REMARK  233  A    between atoms: _587  and  _590
REMARK  234  A    between atoms: _590  and  _591
REMARK  235  A    between atoms: _594  and  _596
REMARK  236  A    between atoms: _596  and  _597
REMARK  237  A    between atoms: _600  and  _602
REMARK  238  A    between atoms: _602  and  _603
REMARK  239  A    between atoms: _602  and  _605
REMARK  240  A    between atoms: _605  and  _606
REMARK                            x       y       z     vdW  Elec       q    Type
REMARK                         _______ _______ _______ _____ _____    ______ ____
ROOT
ATOM      1  C   ASN A   3     -37.205   6.892   1.483  0.00  0.00    +0.241 C 
ATOM      2  O   ASN A   3     -38.383   6.596   1.575  0.00  0.00    -0.273 OA
ATOM      3  N   TRP A   4     -36.607   7.143   0.326  0.00  0.00    -0.297 N 
ATOM      4  H   TRP A   4     -35.584   7.330   0.315  0.00  0.00    +0.150 HD
ENDROOT
BRANCH   3   5
ATOM      5  CA  TRP A   4     -37.348   7.164  -0.933  0.00  0.00    +0.153 C 
BRANCH   5   6
ATOM      6  C   TRP A   4     -37.984   5.812  -1.269  0.00  0.00    +0.241 C 
ATOM      7  N   ASN A   5     -37.415   4.720  -0.745  0.00  0.00    -0.298 N 
ATOM      8  H   ASN A   5     -36.576   4.838  -0.142  0.00  0.00    +0.150 HD
ATOM      9  O   TRP A   4     -38.943   5.753  -2.044  0.00  0.00    -0.273 OA
BRANCH   7  10
ATOM     10  CA  ASN A   5     -37.925   3.353  -0.984  0.00  0.00    +0.146 C 
BRANCH  10  11
ATOM     11  C   ASN A   5     -38.732   2.758   0.166  0.00  0.00    +0.227 C 
ATOM     12  O   ASN A   5     -38.972   1.552   0.204  0.00  0.00    -0.286 OA
ENDBRANCH  10  11
BRANCH  10  13
ATOM     13  CB  ASN A   5     -36.755   2.415  -1.308  0.00  0.00    +0.112 C 
BRANCH  13  14
ATOM     14  CG  ASN A   5     -36.371   2.439  -2.773  0.00  0.00    +0.222 C 
ATOM     15  ND2 ASN A   5     -35.106   2.145  -3.041  0.00  0.00    -0.329 N 
ATOM     16 HD21 ASN A   5     -34.447   1.928  -2.266  0.00  0.00    +0.145 HD
ATOM     17 HD22 ASN A   5     -34.773   2.132  -4.026  0.00  0.00    +0.145 HD
ATOM     18  OD1 ASN A   5     -37.191   2.704  -3.661  0.00  0.00    -0.275 OA
ENDBRANCH  13  14
ENDBRANCH  10  13
ENDBRANCH   7  10
ENDBRANCH   5   6
BRANCH   5  19
ATOM     19  CB  TRP A   4     -36.441   7.615  -2.079  0.00  0.00    +0.057 C 
BRANCH  19  20
ATOM     20  CG  TRP A   4     -35.192   6.806  -2.158  0.00  0.00    -0.002 A 
ATOM     21  CD2 TRP A   4     -33.965   7.046  -1.459  0.00  0.00    +0.013 A 
ATOM     22  CE3 TRP A   4     -33.517   8.034  -0.567  0.00  0.00    +0.001 A 
ATOM     23  CZ3 TRP A   4     -32.228   7.942  -0.063  0.00  0.00    +0.000 A 
ATOM     24  CH2 TRP A   4     -31.386   6.879  -0.423  0.00  0.00    +0.001 A 
ATOM     25  CZ2 TRP A   4     -31.800   5.900  -1.284  0.00  0.00    +0.017 A 
ATOM     26  CE2 TRP A   4     -33.089   5.992  -1.800  0.00  0.00    +0.056 A 
ATOM     27  NE1 TRP A   4     -33.749   5.185  -2.686  0.00  0.00    -0.352 N 
ATOM     28  HE1 TRP A   4     -33.358   4.330  -3.131  0.00  0.00    +0.166 HD
ATOM     29  CD1 TRP A   4     -35.014   5.687  -2.894  0.00  0.00    +0.068 A 
ENDBRANCH  19  20
ENDBRANCH   5  19
ENDBRANCH   3   5
BRANCH   1  30
ATOM     30  CA  ASN A   3     -36.339   6.973   2.721  0.00  0.00    +0.158 C 
BRANCH  30  32
ATOM     31  C   GLY A   2     -34.581   5.413   2.053  0.00  0.00    +0.243 C 
ATOM     32  N   ASN A   3     -34.955   6.613   2.465  0.00  0.00    -0.297 N 
ATOM     33  H   ASN A   3     -34.221   7.335   2.613  0.00  0.00    +0.150 HD
ATOM     34  O   GLY A   2     -35.370   4.557   1.657  0.00  0.00    -0.273 OA
BRANCH  31  35
ATOM     35  CA  GLY A   2     -33.103   5.199   2.081  0.00  0.00    +0.176 C 
BRANCH  35  38
ATOM     36  C   ASN A   1     -31.602   3.295   2.171  0.00  0.00    +0.239 C 
ATOM     37  O   ASN A   1     -31.135   3.678   3.267  0.00  0.00    -0.274 OA
ATOM     38  N   GLY A   2     -32.607   3.934   1.562  0.00  0.00    -0.296 N 
ATOM     39  H   GLY A   2     -33.038   3.523   0.710  0.00  0.00    +0.150 HD
BRANCH  36  40
ATOM     40  CA  ASN A   1     -30.976   2.096   1.451  0.00  0.00    +0.154 C 
BRANCH  40  41
ATOM     41  N   ASN A   1     -30.345   1.263   2.454  0.00  0.00    -0.238 NA
ATOM     42  H   ASN A   1     -30.603   1.377   3.455  0.00  0.00    +0.142 HD
ENDBRANCH  40  41
BRANCH  40  43
ATOM     43  CB  ASN A   1     -31.984   1.259   0.627  0.00  0.00    +0.111 C 
BRANCH  43  44
ATOM     44  CG  ASN A   1     -32.290   1.861  -0.712  0.00  0.00    +0.221 C 
ATOM     45  OD1 ASN A   1     -33.283   2.598  -0.852  0.00  0.00    -0.275 OA
ATOM     46  ND2 ASN A   1     -31.464   1.602  -1.697  0.00  0.00    -0.329 N 
ATOM     47 HD21 ASN A   1     -30.645   0.981  -1.539  0.00  0.00    +0.145 HD
ATOM     48 HD22 ASN A   1     -31.628   2.018  -2.636  0.00  0.00    +0.145 HD
ENDBRANCH  43  44
ENDBRANCH  40  43
ENDBRANCH  36  40
ENDBRANCH  35  38
ENDBRANCH  31  35
ENDBRANCH  30  32
BRANCH  30  49
ATOM     49  CB  ASN A   3     -36.299   8.390   3.288  0.00  0.00    +0.114 C 
BRANCH  49  50
ATOM     50  CG  ASN A   3     -37.587   8.906   3.904  0.00  0.00    +0.222 C 
ATOM     51  OD1 ASN A   3     -37.562  10.045   4.383  0.00  0.00    -0.275 OA
ATOM     52  ND2 ASN A   3     -38.666   8.159   3.898  0.00  0.00    -0.329 N 
ATOM     53 HD21 ASN A   3     -39.551   8.520   4.309  0.00  0.00    +0.145 HD
ATOM     54 HD22 ASN A   3     -38.636   7.206   3.483  0.00  0.00    +0.145 HD
ENDBRANCH  49  50
ENDBRANCH  30  49
ENDBRANCH   1  30
TORSDOF 18
REMARK  Name = ../refined-set-2016/4ua8/4ua8_pocket.pdb
REMARK  240 active torsions:
REMARK  status: ('A' for Active; 'I' for Inactive)
REMARK    1  A    between atoms: _1  and  _3
REMARK    2  A    between atoms: _3  and  _4
REMARK    3  A    between atoms: _7  and  _8
REMARK    4  A    between atoms: _13  and  _15
REMARK    5  A    between atoms: _15  and  _16
REMARK    6  A    between atoms: _19  and  _21
REMARK    7  A    between atoms: _21  and  _22
REMARK    8  A    between atoms: _21  and  _24
REMARK    9  A    between atoms: _24  and  _25
REMARK   10  A    between atoms: _25  and  _26
REMARK   11  A    between atoms: _29  and  _31
REMARK   12  A    between atoms: _31  and  _32
REMARK   13  A    between atoms: _31  and  _34
REMARK   14  A    between atoms: _34  and  _35
REMARK   15  A    between atoms: _38  and  _40
REMARK   16  A    between atoms: _40  and  _41
REMARK   17  A    between atoms: _40  and  _43
REMARK   18  A    between atoms: _43  and  _44
REMARK   19  A    between atoms: _46  and  _48
REMARK   20  A    between atoms: _48  and  _49
REMARK   21  A    between atoms: _48  and  _51
REMARK   22  A    between atoms: _51  and  _52
REMARK   23  A    between atoms: _54  and  _56
REMARK   24  A    between atoms: _56  and  _57
REMARK   25  A    between atoms: _56  and  _59
REMARK   26  A    between atoms: _59  and  _60
REMARK   27  A    between atoms: _60  and  _61
REMARK   28  A    between atoms: _64  and  _66
REMARK   29  A    between atoms: _66  and  _67
REMARK   30  A    between atoms: _66  and  _69
REMARK   31  A    between atoms: _69  and  _70
REMARK   32  A    between atoms: _72  and  _74
REMARK   33  A    between atoms: _74  and  _75
REMARK   34  A    between atoms: _74  and  _77
REMARK   35  A    between atoms: _77  and  _78
REMARK   36  A    between atoms: _81  and  _83
REMARK   37  A    between atoms: _83  and  _84
REMARK   38  A    between atoms: _87  and  _89
REMARK   39  A    between atoms: _89  and  _90
REMARK   40  A    between atoms: _89  and  _92
REMARK   41  A    between atoms: _92  and  _93
REMARK   42  A    between atoms: _93  and  _94
REMARK   43  A    between atoms: _94  and  _95
REMARK   44  A    between atoms: _95  and  _96
REMARK   45  A    between atoms: _100  and  _102
REMARK   46  A    between atoms: _102  and  _103
REMARK   47  A    between atoms: _102  and  _105
REMARK   48  A    between atoms: _105  and  _106
REMARK   49  A    between atoms: _109  and  _111
REMARK   50  A    between atoms: _111  and  _112
REMARK   51  A    between atoms: _111  and  _114
REMARK   52  A    between atoms: _114  and  _115
REMARK   53  A    between atoms: _115  and  _116
REMARK   54  A    between atoms: _118  and  _120
REMARK   55  A    between atoms: _120  and  _121
REMARK   56  A    between atoms: _120  and  _123
REMARK   57  A    between atoms: _123  and  _124
REMARK   58  A    between atoms: _130  and  _132
REMARK   59  A    between atoms: _132  and  _133
REMARK   60  A    between atoms: _136  and  _138
REMARK   61  A    between atoms: _138  and  _139
REMARK   62  A    between atoms: _138  and  _141
REMARK   63  A    between atoms: _141  and  _142
REMARK   64  A    between atoms: _147  and  _149
REMARK   65  A    between atoms: _149  and  _150
REMARK   66  A    between atoms: _149  and  _152
REMARK   67  A    between atoms: _152  and  _153
REMARK   68  A    between atoms: _156  and  _158
REMARK   69  A    between atoms: _158  and  _159
REMARK   70  A    between atoms: _158  and  _161
REMARK   71  A    between atoms: _161  and  _162
REMARK   72  A    between atoms: _162  and  _163
REMARK   73  A    between atoms: _168  and  _170
REMARK   74  A    between atoms: _170  and  _171
REMARK   75  A    between atoms: _170  and  _173
REMARK   76  A    between atoms: _173  and  _174
REMARK   77  A    between atoms: _178  and  _179
REMARK   78  A    between atoms: _184  and  _186
REMARK   79  A    between atoms: _186  and  _187
REMARK   80  A    between atoms: _186  and  _189
REMARK   81  A    between atoms: _189  and  _190
REMARK   82  A    between atoms: _195  and  _196
REMARK   83  A    between atoms: _198  and  _200
REMARK   84  A    between atoms: _200  and  _201
REMARK   85  A    between atoms: _200  and  _203
REMARK   86  A    between atoms: _203  and  _204
REMARK   87  A    between atoms: _207  and  _209
REMARK   88  A    between atoms: _209  and  _210
REMARK   89  A    between atoms: _209  and  _212
REMARK   90  A    between atoms: _212  and  _213
REMARK   91  A    between atoms: _215  and  _217
REMARK   92  A    between atoms: _217  and  _218
REMARK   93  A    between atoms: _217  and  _220
REMARK   94  A    between atoms: _220  and  _221
REMARK   95  A    between atoms: _226  and  _228
REMARK   96  A    between atoms: _228  and  _229
REMARK   97  A    between atoms: _228  and  _231
REMARK   98  A    between atoms: _231  and  _232
REMARK   99  A    between atoms: _235  and  _237
REMARK  100  A    between atoms: _237  and  _238
REMARK  101  A    between atoms: _237  and  _240
REMARK  102  A    between atoms: _240  and  _241
REMARK  103  A    between atoms: _252  and  _253
REMARK  104  A    between atoms: _258  and  _260
REMARK  105  A    between atoms: _260  and  _261
REMARK  106  A    between atoms: _260  and  _263
REMARK  107  A    between atoms: _263  and  _264
REMARK  108  A    between atoms: _267  and  _269
REMARK  109  A    between atoms: _269  and  _270
REMARK  110  A    between atoms: _269  and  _272
REMARK  111  A    between atoms: _272  and  _273
REMARK  112  A    between atoms: _278  and  _280
REMARK  113  A    between atoms: _280  and  _281
REMARK  114  A    between atoms: _283  and  _285
REMARK  115  A    between atoms: _285  and  _286
REMARK  116  A    between atoms: _285  and  _288
REMARK  117  A    between atoms: _288  and  _289
REMARK  118  A    between atoms: _299  and  _301
REMARK  119  A    between atoms: _301  and  _302
REMARK  120  A    between atoms: _301  and  _304
REMARK  121  A    between atoms: _304  and  _305
REMARK  122  A    between atoms: _310  and  _311
REMARK  123  A    between atoms: _313  and  _315
REMARK  124  A    between atoms: _315  and  _316
REMARK  125  A    between atoms: _315  and  _318
REMARK  126  A    between atoms: _318  and  _319
REMARK  127  A    between atoms: _322  and  _324
REMARK  128  A    between atoms: _324  and  _325
REMARK  129  A    between atoms: _324  and  _327
REMARK  130  A    between atoms: _327  and  _328
REMARK  131  A    between atoms: _333  and  _335
REMARK  132  A    between atoms: _335  and  _336
REMARK  133  A    between atoms: _335  and  _338
REMARK  134  A    between atoms: _338  and  _339
REMARK  135  A    between atoms: _344  and  _346
REMARK  136  A    between atoms: _346  and  _347
REMARK  137  A    between atoms: _346  and  _349
REMARK  138  A    between atoms: _349  and  _350
REMARK  139  A    between atoms: _350  and  _351
REMARK  140  A    between atoms: _354  and  _356
REMARK  141  A    between atoms: _356  and  _357
REMARK  142  A    between atoms: _359  and  _361
REMARK  143  A    between atoms: _361  and  _362
REMARK  144  A    between atoms: _361  and  _364
REMARK  145  A    between atoms: _364  and  _365
REMARK  146  A    between atoms: _367  and  _369
REMARK  147  A    between atoms: _369  and  _370
REMARK  148  A    between atoms: _369  and  _372
REMARK  149  A    between atoms: _372  and  _373
REMARK  150  A    between atoms: _378  and  _379
REMARK  151  A    between atoms: _381  and  _383
REMARK  152  A    between atoms: _383  and  _384
REMARK  153  A    between atoms: _383  and  _386
REMARK  154  A    between atoms: _386  and  _387
REMARK  155  A    between atoms: _392  and  _394
REMARK  156  A    between atoms: _394  and  _395
REMARK  157  A    between atoms: _397  and  _399
REMARK  158  A    between atoms: _399  and  _400
REMARK  159  A    between atoms: _399  and  _402
REMARK  160  A    between atoms: _402  and  _403
REMARK  161  A    between atoms: _408  and  _410
REMARK  162  A    between atoms: _410  and  _411
REMARK  163  A    between atoms: _410  and  _413
REMARK  164  A    between atoms: _413  and  _414
REMARK  165  A    between atoms: _424  and  _426
REMARK  166  A    between atoms: _426  and  _427
REMARK  167  A    between atoms: _426  and  _429
REMARK  168  A    between atoms: _429  and  _430
REMARK  169  A    between atoms: _435  and  _437
REMARK  170  A    between atoms: _437  and  _438
REMARK  171  A    between atoms: _437  and  _440
REMARK  172  A    between atoms: _440  and  _441
REMARK  173  A    between atoms: _441  and  _442
REMARK  174  A    between atoms: _442  and  _443
REMARK  175  A    between atoms: _443  and  _444
REMARK  176  A    between atoms: _448  and  _450
REMARK  177  A    between atoms: _450  and  _451
REMARK  178  A    between atoms: _450  and  _453
REMARK  179  A    between atoms: _453  and  _454
REMARK  180  A    between atoms: _460  and  _462
REMARK  181  A    between atoms: _462  and  _463
REMARK  182  A    between atoms: _465  and  _467
REMARK  183  A    between atoms: _467  and  _468
REMARK  184  A    between atoms: _467  and  _470
REMARK  185  A    between atoms: _470  and  _471
REMARK  186  A    between atoms: _473  and  _475
REMARK  187  A    between atoms: _475  and  _476
REMARK  188  A    between atoms: _475  and  _478
REMARK  189  A    between atoms: _478  and  _479
REMARK  190  A    between atoms: _479  and  _480
REMARK  191  A    between atoms: _480  and  _481
REMARK  192  A    between atoms: _481  and  _482
REMARK  193  A    between atoms: _486  and  _488
REMARK  194  A    between atoms: _488  and  _489
REMARK  195  A    between atoms: _488  and  _491
REMARK  196  A    between atoms: _491  and  _492
REMARK  197  A    between atoms: _497  and  _499
REMARK  198  A    between atoms: _499  and  _500
REMARK  199  A    between atoms: _499  and  _502
REMARK  200  A    between atoms: _502  and  _503
REMARK  201  A    between atoms: _503  and  _504
REMARK  202  A    between atoms: _504  and  _505
REMARK  203  A    between atoms: _514  and  _516
REMARK  204  A    between atoms: _516  and  _517
REMARK  205  A    between atoms: _516  and  _519
REMARK  206  A    between atoms: _519  and  _520
REMARK  207  A    between atoms: _520  and  _521
REMARK  208  A    between atoms: _526  and  _528
REMARK  209  A    between atoms: _528  and  _529
REMARK  210  A    between atoms: _528  and  _531
REMARK  211  A    between atoms: _531  and  _532
REMARK  212  A    between atoms: _532  and  _533
REMARK  213  A    between atoms: _538  and  _540
REMARK  214  A    between atoms: _540  and  _541
REMARK  215  A    between atoms: _540  and  _543
REMARK  216  A    between atoms: _543  and  _544
REMARK  217  A    between atoms: _544  and  _545
REMARK  218  A    between atoms: _547  and  _549
REMARK  219  A    between atoms: _549  and  _550
REMARK  220  A    between atoms: _549  and  _552
REMARK  221  A    between atoms: _552  and  _553
REMARK  222  A    between atoms: _555  and  _557
REMARK  223  A    between atoms: _557  and  _558
REMARK  224  A    between atoms: _557  and  _560
REMARK  225  A    between atoms: _560  and  _561
REMARK  226  A    between atoms: _566  and  _567
REMARK  227  A    between atoms: _569  and  _571
REMARK  228  A    between atoms: _571  and  _572
REMARK  229  A    between atoms: _571  and  _574
REMARK  230  A    between atoms: _574  and  _575
REMARK  231  A    between atoms: _585  and  _587
REMARK  232  A    between atoms: _587  and  _588
REMARK  233  A    between atoms: _587  and  _590
REMARK  234  A    between atoms: _590  and  _591
REMARK  235  A    between atoms: _594  and  _596
REMARK  236  A    between atoms: _596  and  _597
REMARK  237  A    between atoms: _600  and  _602
REMARK  238  A    between atoms: _602  and  _603
REMARK  239  A    between atoms: _602  and  _605
REMARK  240  A    between atoms: _605  and  _606
REMARK                            x       y       z     vdW  Elec       q    Type
REMARK                         _______ _______ _______ _____ _____    ______ ____
ROOT
ATOM      1  CG  LYS A   1     -41.028   0.792  -3.941  0.00  0.00    -0.000 C 
ENDROOT
BRANCH   1   2
ATOM      2  CB  LYS A   1     -40.465  -0.010  -2.799  0.00  0.00    +0.025 C 
BRANCH   2   3
ATOM      3  CA  LYS A   1     -41.499  -0.291  -1.715  0.00  0.00    +0.133 C 
BRANCH   3   4
ATOM      4  N   LYS A   1     -41.842   0.923  -0.985  0.00  0.00    -0.239 NA
ATOM      5  H   LYS A   1     -41.265   1.780  -1.104  0.00  0.00    +0.142 HD
ENDBRANCH   3   4
BRANCH   3   6
ATOM      6  C   LYS A   1     -40.997  -1.376  -0.768  0.00  0.00    +0.224 C 
ATOM      7  O   LYS A   1     -41.226  -2.553  -1.018  0.00  0.00    -0.287 OA
ENDBRANCH   3   6
ENDBRANCH   2   3
ENDBRANCH   1   2
BRANCH   1   8
ATOM      8  CD  LYS A   1     -40.024   1.055  -5.013  0.00  0.00    -0.024 C 
BRANCH   8   9
ATOM      9  CE  LYS A   1     -40.704   1.661  -6.233  0.00  0.00    -0.086 C 
BRANCH   9  10
ATOM     10  NZ  LYS A   1     -39.770   1.699  -7.382  0.00  0.00    +0.380 N 
ATOM     11  HZ1 LYS A   1     -38.941   2.277  -7.135  0.00  0.00    -0.089 HD
ATOM     12  HZ2 LYS A   1     -39.464   0.732  -7.611  0.00  0.00    -0.089 HD
ATOM     13  HZ3 LYS A   1     -40.251   2.115  -8.205  0.00  0.00    -0.089 HD
ENDBRANCH   9  10
ENDBRANCH   8   9
ENDBRANCH   1   8
TORSDOF 7
REMARK  Name = ../refined-set-2016/4ua8/4ua8_pocket.pdb
REMARK  240 active torsions:
REMARK  status: ('A' for Active; 'I' for Inactive)
REMARK    1  A    between atoms: _1  and  _3
REMARK    2  A    between atoms: _3  and  _4
REMARK    3  A    between atoms: _7  and  _8
REMARK    4  A    between atoms: _13  and  _15
REMARK    5  A    between atoms: _15  and  _16
REMARK    6  A    between atoms: _19  and  _21
REMARK    7  A    between atoms: _21  and  _22
REMARK    8  A    between atoms: _21  and  _24
REMARK    9  A    between atoms: _24  and  _25
REMARK   10  A    between atoms: _25  and  _26
REMARK   11  A    between atoms: _29  and  _31
REMARK   12  A    between atoms: _31  and  _32
REMARK   13  A    between atoms: _31  and  _34
REMARK   14  A    between atoms: _34  and  _35
REMARK   15  A    between atoms: _38  and  _40
REMARK   16  A    between atoms: _40  and  _41
REMARK   17  A    between atoms: _40  and  _43
REMARK   18  A    between atoms: _43  and  _44
REMARK   19  A    between atoms: _46  and  _48
REMARK   20  A    between atoms: _48  and  _49
REMARK   21  A    between atoms: _48  and  _51
REMARK   22  A    between atoms: _51  and  _52
REMARK   23  A    between atoms: _54  and  _56
REMARK   24  A    between atoms: _56  and  _57
REMARK   25  A    between atoms: _56  and  _59
REMARK   26  A    between atoms: _59  and  _60
REMARK   27  A    between atoms: _60  and  _61
REMARK   28  A    between atoms: _64  and  _66
REMARK   29  A    between atoms: _66  and  _67
REMARK   30  A    between atoms: _66  and  _69
REMARK   31  A    between atoms: _69  and  _70
REMARK   32  A    between atoms: _72  and  _74
REMARK   33  A    between atoms: _74  and  _75
REMARK   34  A    between atoms: _74  and  _77
REMARK   35  A    between atoms: _77  and  _78
REMARK   36  A    between atoms: _81  and  _83
REMARK   37  A    between atoms: _83  and  _84
REMARK   38  A    between atoms: _87  and  _89
REMARK   39  A    between atoms: _89  and  _90
REMARK   40  A    between atoms: _89  and  _92
REMARK   41  A    between atoms: _92  and  _93
REMARK   42  A    between atoms: _93  and  _94
REMARK   43  A    between atoms: _94  and  _95
REMARK   44  A    between atoms: _95  and  _96
REMARK   45  A    between atoms: _100  and  _102
REMARK   46  A    between atoms: _102  and  _103
REMARK   47  A    between atoms: _102  and  _105
REMARK   48  A    between atoms: _105  and  _106
REMARK   49  A    between atoms: _109  and  _111
REMARK   50  A    between atoms: _111  and  _112
REMARK   51  A    between atoms: _111  and  _114
REMARK   52  A    between atoms: _114  and  _115
REMARK   53  A    between atoms: _115  and  _116
REMARK   54  A    between atoms: _118  and  _120
REMARK   55  A    between atoms: _120  and  _121
REMARK   56  A    between atoms: _120  and  _123
REMARK   57  A    between atoms: _123  and  _124
REMARK   58  A    between atoms: _130  and  _132
REMARK   59  A    between atoms: _132  and  _133
REMARK   60  A    between atoms: _136  and  _138
REMARK   61  A    between atoms: _138  and  _139
REMARK   62  A    between atoms: _138  and  _141
REMARK   63  A    between atoms: _141  and  _142
REMARK   64  A    between atoms: _147  and  _149
REMARK   65  A    between atoms: _149  and  _150
REMARK   66  A    between atoms: _149  and  _152
REMARK   67  A    between atoms: _152  and  _153
REMARK   68  A    between atoms: _156  and  _158
REMARK   69  A    between atoms: _158  and  _159
REMARK   70  A    between atoms: _158  and  _161
REMARK   71  A    between atoms: _161  and  _162
REMARK   72  A    between atoms: _162  and  _163
REMARK   73  A    between atoms: _168  and  _170
REMARK   74  A    between atoms: _170  and  _171
REMARK   75  A    between atoms: _170  and  _173
REMARK   76  A    between atoms: _173  and  _174
REMARK   77  A    between atoms: _178  and  _179
REMARK   78  A    between atoms: _184  and  _186
REMARK   79  A    between atoms: _186  and  _187
REMARK   80  A    between atoms: _186  and  _189
REMARK   81  A    between atoms: _189  and  _190
REMARK   82  A    between atoms: _195  and  _196
REMARK   83  A    between atoms: _198  and  _200
REMARK   84  A    between atoms: _200  and  _201
REMARK   85  A    between atoms: _200  and  _203
REMARK   86  A    between atoms: _203  and  _204
REMARK   87  A    between atoms: _207  and  _209
REMARK   88  A    between atoms: _209  and  _210
REMARK   89  A    between atoms: _209  and  _212
REMARK   90  A    between atoms: _212  and  _213
REMARK   91  A    between atoms: _215  and  _217
REMARK   92  A    between atoms: _217  and  _218
REMARK   93  A    between atoms: _217  and  _220
REMARK   94  A    between atoms: _220  and  _221
REMARK   95  A    between atoms: _226  and  _228
REMARK   96  A    between atoms: _228  and  _229
REMARK   97  A    between atoms: _228  and  _231
REMARK   98  A    between atoms: _231  and  _232
REMARK   99  A    between atoms: _235  and  _237
REMARK  100  A    between atoms: _237  and  _238
REMARK  101  A    between atoms: _237  and  _240
REMARK  102  A    between atoms: _240  and  _241
REMARK  103  A    between atoms: _252  and  _253
REMARK  104  A    between atoms: _258  and  _260
REMARK  105  A    between atoms: _260  and  _261
REMARK  106  A    between atoms: _260  and  _263
REMARK  107  A    between atoms: _263  and  _264
REMARK  108  A    between atoms: _267  and  _269
REMARK  109  A    between atoms: _269  and  _270
REMARK  110  A    between atoms: _269  and  _272
REMARK  111  A    between atoms: _272  and  _273
REMARK  112  A    between atoms: _278  and  _280
REMARK  113  A    between atoms: _280  and  _281
REMARK  114  A    between atoms: _283  and  _285
REMARK  115  A    between atoms: _285  and  _286
REMARK  116  A    between atoms: _285  and  _288
REMARK  117  A    between atoms: _288  and  _289
REMARK  118  A    between atoms: _299  and  _301
REMARK  119  A    between atoms: _301  and  _302
REMARK  120  A    between atoms: _301  and  _304
REMARK  121  A    between atoms: _304  and  _305
REMARK  122  A    between atoms: _310  and  _311
REMARK  123  A    between atoms: _313  and  _315
REMARK  124  A    between atoms: _315  and  _316
REMARK  125  A    between atoms: _315  and  _318
REMARK  126  A    between atoms: _318  and  _319
REMARK  127  A    between atoms: _322  and  _324
REMARK  128  A    between atoms: _324  and  _325
REMARK  129  A    between atoms: _324  and  _327
REMARK  130  A    between atoms: _327  and  _328
REMARK  131  A    between atoms: _333  and  _335
REMARK  132  A    between atoms: _335  and  _336
REMARK  133  A    between atoms: _335  and  _338
REMARK  134  A    between atoms: _338  and  _339
REMARK  135  A    between atoms: _344  and  _346
REMARK  136  A    between atoms: _346  and  _347
REMARK  137  A    between atoms: _346  and  _349
REMARK  138  A    between atoms: _349  and  _350
REMARK  139  A    between atoms: _350  and  _351
REMARK  140  A    between atoms: _354  and  _356
REMARK  141  A    between atoms: _356  and  _357
REMARK  142  A    between atoms: _359  and  _361
REMARK  143  A    between atoms: _361  and  _362
REMARK  144  A    between atoms: _361  and  _364
REMARK  145  A    between atoms: _364  and  _365
REMARK  146  A    between atoms: _367  and  _369
REMARK  147  A    between atoms: _369  and  _370
REMARK  148  A    between atoms: _369  and  _372
REMARK  149  A    between atoms: _372  and  _373
REMARK  150  A    between atoms: _378  and  _379
REMARK  151  A    between atoms: _381  and  _383
REMARK  152  A    between atoms: _383  and  _384
REMARK  153  A    between atoms: _383  and  _386
REMARK  154  A    between atoms: _386  and  _387
REMARK  155  A    between atoms: _392  and  _394
REMARK  156  A    between atoms: _394  and  _395
REMARK  157  A    between atoms: _397  and  _399
REMARK  158  A    between atoms: _399  and  _400
REMARK  159  A    between atoms: _399  and  _402
REMARK  160  A    between atoms: _402  and  _403
REMARK  161  A    between atoms: _408  and  _410
REMARK  162  A    between atoms: _410  and  _411
REMARK  163  A    between atoms: _410  and  _413
REMARK  164  A    between atoms: _413  and  _414
REMARK  165  A    between atoms: _424  and  _426
REMARK  166  A    between atoms: _426  and  _427
REMARK  167  A    between atoms: _426  and  _429
REMARK  168  A    between atoms: _429  and  _430
REMARK  169  A    between atoms: _435  and  _437
REMARK  170  A    between atoms: _437  and  _438
REMARK  171  A    between atoms: _437  and  _440
REMARK  172  A    between atoms: _440  and  _441
REMARK  173  A    between atoms: _441  and  _442
REMARK  174  A    between atoms: _442  and  _443
REMARK  175  A    between atoms: _443  and  _444
REMARK  176  A    between atoms: _448  and  _450
REMARK  177  A    between atoms: _450  and  _451
REMARK  178  A    between atoms: _450  and  _453
REMARK  179  A    between atoms: _453  and  _454
REMARK  180  A    between atoms: _460  and  _462
REMARK  181  A    between atoms: _462  and  _463
REMARK  182  A    between atoms: _465  and  _467
REMARK  183  A    between atoms: _467  and  _468
REMARK  184  A    between atoms: _467  and  _470
REMARK  185  A    between atoms: _470  and  _471
REMARK  186  A    between atoms: _473  and  _475
REMARK  187  A    between atoms: _475  and  _476
REMARK  188  A    between atoms: _475  and  _478
REMARK  189  A    between atoms: _478  and  _479
REMARK  190  A    between atoms: _479  and  _480
REMARK  191  A    between atoms: _480  and  _481
REMARK  192  A    between atoms: _481  and  _482
REMARK  193  A    between atoms: _486  and  _488
REMARK  194  A    between atoms: _488  and  _489
REMARK  195  A    between atoms: _488  and  _491
REMARK  196  A    between atoms: _491  and  _492
REMARK  197  A    between atoms: _497  and  _499
REMARK  198  A    between atoms: _499  and  _500
REMARK  199  A    between atoms: _499  and  _502
REMARK  200  A    between atoms: _502  and  _503
REMARK  201  A    between atoms: _503  and  _504
REMARK  202  A    between atoms: _504  and  _505
REMARK  203  A    between atoms: _514  and  _516
REMARK  204  A    between atoms: _516  and  _517
REMARK  205  A    between atoms: _516  and  _519
REMARK  206  A    between atoms: _519  and  _520
REMARK  207  A    between atoms: _520  and  _521
REMARK  208  A    between atoms: _526  and  _528
REMARK  209  A    between atoms: _528  and  _529
REMARK  210  A    between atoms: _528  and  _531
REMARK  211  A    between atoms: _531  and  _532
REMARK  212  A    between atoms: _532  and  _533
REMARK  213  A    between atoms: _538  and  _540
REMARK  214  A    between atoms: _540  and  _541
REMARK  215  A    between atoms: _540  and  _543
REMARK  216  A    between atoms: _543  and  _544
REMARK  217  A    between atoms: _544  and  _545
REMARK  218  A    between atoms: _547  and  _549
REMARK  219  A    between atoms: _549  and  _550
REMARK  220  A    between atoms: _549  and  _552
REMARK  221  A    between atoms: _552  and  _553
REMARK  222  A    between atoms: _555  and  _557
REMARK  223  A    between atoms: _557  and  _558
REMARK  224  A    between atoms: _557  and  _560
REMARK  225  A    between atoms: _560  and  _561
REMARK  226  A    between atoms: _566  and  _567
REMARK  227  A    between atoms: _569  and  _571
REMARK  228  A    between atoms: _571  and  _572
REMARK  229  A    between atoms: _571  and  _574
REMARK  230  A    between atoms: _574  and  _575
REMARK  231  A    between atoms: _585  and  _587
REMARK  232  A    between atoms: _587  and  _588
REMARK  233  A    between atoms: _587  and  _590
REMARK  234  A    between atoms: _590  and  _591
REMARK  235  A    between atoms: _594  and  _596
REMARK  236  A    between atoms: _596  and  _597
REMARK  237  A    between atoms: _600  and  _602
REMARK  238  A    between atoms: _602  and  _603
REMARK  239  A    between atoms: _602  and  _605
REMARK  240  A    between atoms: _605  and  _606
REMARK                            x       y       z     vdW  Elec       q    Type
REMARK                         _______ _______ _______ _____ _____    ______ ____
ROOT
ATOM      1  CB  PHE A   1     -22.540  10.813   3.174  0.00  0.00    +0.051 C 
ENDROOT
BRANCH   1   2
ATOM      2  CG  PHE A   1     -21.182  10.489   2.669  0.00  0.00    -0.020 A 
ATOM      3  CD2 PHE A   1     -20.066  11.169   3.136  0.00  0.00    -0.004 A 
ATOM      4  CE2 PHE A   1     -18.806  10.887   2.669  0.00  0.00    -0.000 A 
ATOM      5  CZ  PHE A   1     -18.638   9.876   1.708  0.00  0.00    -0.000 A 
ATOM      6  CE1 PHE A   1     -19.740   9.203   1.235  0.00  0.00    -0.000 A 
ATOM      7  CD1 PHE A   1     -21.013   9.495   1.725  0.00  0.00    -0.004 A 
ENDBRANCH   1   2
BRANCH   1   8
ATOM      8  CA  PHE A   1     -22.747  10.502   4.669  0.00  0.00    +0.137 C 
BRANCH   8   9
ATOM      9  N   PHE A   1     -22.710   9.072   4.933  0.00  0.00    -0.239 NA
ATOM     10  H   PHE A   1     -22.687   8.403   4.137  0.00  0.00    +0.142 HD
ENDBRANCH   8   9
BRANCH   8  11
ATOM     11  C   PHE A   1     -24.099  11.051   5.103  0.00  0.00    +0.224 C 
ATOM     12  O   PHE A   1     -25.123  10.398   4.895  0.00  0.00    -0.287 OA
ENDBRANCH   8  11
ENDBRANCH   1   8
TORSDOF 4
REMARK  Name = ../refined-set-2016/4ua8/4ua8_pocket.pdb
REMARK  240 active torsions:
REMARK  status: ('A' for Active; 'I' for Inactive)
REMARK    1  A    between atoms: _1  and  _3
REMARK    2  A    between atoms: _3  and  _4
REMARK    3  A    between atoms: _7  and  _8
REMARK    4  A    between atoms: _13  and  _15
REMARK    5  A    between atoms: _15  and  _16
REMARK    6  A    between atoms: _19  and  _21
REMARK    7  A    between atoms: _21  and  _22
REMARK    8  A    between atoms: _21  and  _24
REMARK    9  A    between atoms: _24  and  _25
REMARK   10  A    between atoms: _25  and  _26
REMARK   11  A    between atoms: _29  and  _31
REMARK   12  A    between atoms: _31  and  _32
REMARK   13  A    between atoms: _31  and  _34
REMARK   14  A    between atoms: _34  and  _35
REMARK   15  A    between atoms: _38  and  _40
REMARK   16  A    between atoms: _40  and  _41
REMARK   17  A    between atoms: _40  and  _43
REMARK   18  A    between atoms: _43  and  _44
REMARK   19  A    between atoms: _46  and  _48
REMARK   20  A    between atoms: _48  and  _49
REMARK   21  A    between atoms: _48  and  _51
REMARK   22  A    between atoms: _51  and  _52
REMARK   23  A    between atoms: _54  and  _56
REMARK   24  A    between atoms: _56  and  _57
REMARK   25  A    between atoms: _56  and  _59
REMARK   26  A    between atoms: _59  and  _60
REMARK   27  A    between atoms: _60  and  _61
REMARK   28  A    between atoms: _64  and  _66
REMARK   29  A    between atoms: _66  and  _67
REMARK   30  A    between atoms: _66  and  _69
REMARK   31  A    between atoms: _69  and  _70
REMARK   32  A    between atoms: _72  and  _74
REMARK   33  A    between atoms: _74  and  _75
REMARK   34  A    between atoms: _74  and  _77
REMARK   35  A    between atoms: _77  and  _78
REMARK   36  A    between atoms: _81  and  _83
REMARK   37  A    between atoms: _83  and  _84
REMARK   38  A    between atoms: _87  and  _89
REMARK   39  A    between atoms: _89  and  _90
REMARK   40  A    between atoms: _89  and  _92
REMARK   41  A    between atoms: _92  and  _93
REMARK   42  A    between atoms: _93  and  _94
REMARK   43  A    between atoms: _94  and  _95
REMARK   44  A    between atoms: _95  and  _96
REMARK   45  A    between atoms: _100  and  _102
REMARK   46  A    between atoms: _102  and  _103
REMARK   47  A    between atoms: _102  and  _105
REMARK   48  A    between atoms: _105  and  _106
REMARK   49  A    between atoms: _109  and  _111
REMARK   50  A    between atoms: _111  and  _112
REMARK   51  A    between atoms: _111  and  _114
REMARK   52  A    between atoms: _114  and  _115
REMARK   53  A    between atoms: _115  and  _116
REMARK   54  A    between atoms: _118  and  _120
REMARK   55  A    between atoms: _120  and  _121
REMARK   56  A    between atoms: _120  and  _123
REMARK   57  A    between atoms: _123  and  _124
REMARK   58  A    between atoms: _130  and  _132
REMARK   59  A    between atoms: _132  and  _133
REMARK   60  A    between atoms: _136  and  _138
REMARK   61  A    between atoms: _138  and  _139
REMARK   62  A    between atoms: _138  and  _141
REMARK   63  A    between atoms: _141  and  _142
REMARK   64  A    between atoms: _147  and  _149
REMARK   65  A    between atoms: _149  and  _150
REMARK   66  A    between atoms: _149  and  _152
REMARK   67  A    between atoms: _152  and  _153
REMARK   68  A    between atoms: _156  and  _158
REMARK   69  A    between atoms: _158  and  _159
REMARK   70  A    between atoms: _158  and  _161
REMARK   71  A    between atoms: _161  and  _162
REMARK   72  A    between atoms: _162  and  _163
REMARK   73  A    between atoms: _168  and  _170
REMARK   74  A    between atoms: _170  and  _171
REMARK   75  A    between atoms: _170  and  _173
REMARK   76  A    between atoms: _173  and  _174
REMARK   77  A    between atoms: _178  and  _179
REMARK   78  A    between atoms: _184  and  _186
REMARK   79  A    between atoms: _186  and  _187
REMARK   80  A    between atoms: _186  and  _189
REMARK   81  A    between atoms: _189  and  _190
REMARK   82  A    between atoms: _195  and  _196
REMARK   83  A    between atoms: _198  and  _200
REMARK   84  A    between atoms: _200  and  _201
REMARK   85  A    between atoms: _200  and  _203
REMARK   86  A    between atoms: _203  and  _204
REMARK   87  A    between atoms: _207  and  _209
REMARK   88  A    between atoms: _209  and  _210
REMARK   89  A    between atoms: _209  and  _212
REMARK   90  A    between atoms: _212  and  _213
REMARK   91  A    between atoms: _215  and  _217
REMARK   92  A    between atoms: _217  and  _218
REMARK   93  A    between atoms: _217  and  _220
REMARK   94  A    between atoms: _220  and  _221
REMARK   95  A    between atoms: _226  and  _228
REMARK   96  A    between atoms: _228  and  _229
REMARK   97  A    between atoms: _228  and  _231
REMARK   98  A    between atoms: _231  and  _232
REMARK   99  A    between atoms: _235  and  _237
REMARK  100  A    between atoms: _237  and  _238
REMARK  101  A    between atoms: _237  and  _240
REMARK  102  A    between atoms: _240  and  _241
REMARK  103  A    between atoms: _252  and  _253
REMARK  104  A    between atoms: _258  and  _260
REMARK  105  A    between atoms: _260  and  _261
REMARK  106  A    between atoms: _260  and  _263
REMARK  107  A    between atoms: _263  and  _264
REMARK  108  A    between atoms: _267  and  _269
REMARK  109  A    between atoms: _269  and  _270
REMARK  110  A    between atoms: _269  and  _272
REMARK  111  A    between atoms: _272  and  _273
REMARK  112  A    between atoms: _278  and  _280
REMARK  113  A    between atoms: _280  and  _281
REMARK  114  A    between atoms: _283  and  _285
REMARK  115  A    between atoms: _285  and  _286
REMARK  116  A    between atoms: _285  and  _288
REMARK  117  A    between atoms: _288  and  _289
REMARK  118  A    between atoms: _299  and  _301
REMARK  119  A    between atoms: _301  and  _302
REMARK  120  A    between atoms: _301  and  _304
REMARK  121  A    between atoms: _304  and  _305
REMARK  122  A    between atoms: _310  and  _311
REMARK  123  A    between atoms: _313  and  _315
REMARK  124  A    between atoms: _315  and  _316
REMARK  125  A    between atoms: _315  and  _318
REMARK  126  A    between atoms: _318  and  _319
REMARK  127  A    between atoms: _322  and  _324
REMARK  128  A    between atoms: _324  and  _325
REMARK  129  A    between atoms: _324  and  _327
REMARK  130  A    between atoms: _327  and  _328
REMARK  131  A    between atoms: _333  and  _335
REMARK  132  A    between atoms: _335  and  _336
REMARK  133  A    between atoms: _335  and  _338
REMARK  134  A    between atoms: _338  and  _339
REMARK  135  A    between atoms: _344  and  _346
REMARK  136  A    between atoms: _346  and  _347
REMARK  137  A    between atoms: _346  and  _349
REMARK  138  A    between atoms: _349  and  _350
REMARK  139  A    between atoms: _350  and  _351
REMARK  140  A    between atoms: _354  and  _356
REMARK  141  A    between atoms: _356  and  _357
REMARK  142  A    between atoms: _359  and  _361
REMARK  143  A    between atoms: _361  and  _362
REMARK  144  A    between atoms: _361  and  _364
REMARK  145  A    between atoms: _364  and  _365
REMARK  146  A    between atoms: _367  and  _369
REMARK  147  A    between atoms: _369  and  _370
REMARK  148  A    between atoms: _369  and  _372
REMARK  149  A    between atoms: _372  and  _373
REMARK  150  A    between atoms: _378  and  _379
REMARK  151  A    between atoms: _381  and  _383
REMARK  152  A    between atoms: _383  and  _384
REMARK  153  A    between atoms: _383  and  _386
REMARK  154  A    between atoms: _386  and  _387
REMARK  155  A    between atoms: _392  and  _394
REMARK  156  A    between atoms: _394  and  _395
REMARK  157  A    between atoms: _397  and  _399
REMARK  158  A    between atoms: _399  and  _400
REMARK  159  A    between atoms: _399  and  _402
REMARK  160  A    between atoms: _402  and  _403
REMARK  161  A    between atoms: _408  and  _410
REMARK  162  A    between atoms: _410  and  _411
REMARK  163  A    between atoms: _410  and  _413
REMARK  164  A    between atoms: _413  and  _414
REMARK  165  A    between atoms: _424  and  _426
REMARK  166  A    between atoms: _426  and  _427
REMARK  167  A    between atoms: _426  and  _429
REMARK  168  A    between atoms: _429  and  _430
REMARK  169  A    between atoms: _435  and  _437
REMARK  170  A    between atoms: _437  and  _438
REMARK  171  A    between atoms: _437  and  _440
REMARK  172  A    between atoms: _440  and  _441
REMARK  173  A    between atoms: _441  and  _442
REMARK  174  A    between atoms: _442  and  _443
REMARK  175  A    between atoms: _443  and  _444
REMARK  176  A    between atoms: _448  and  _450
REMARK  177  A    between atoms: _450  and  _451
REMARK  178  A    between atoms: _450  and  _453
REMARK  179  A    between atoms: _453  and  _454
REMARK  180  A    between atoms: _460  and  _462
REMARK  181  A    between atoms: _462  and  _463
REMARK  182  A    between atoms: _465  and  _467
REMARK  183  A    between atoms: _467  and  _468
REMARK  184  A    between atoms: _467  and  _470
REMARK  185  A    between atoms: _470  and  _471
REMARK  186  A    between atoms: _473  and  _475
REMARK  187  A    between atoms: _475  and  _476
REMARK  188  A    between atoms: _475  and  _478
REMARK  189  A    between atoms: _478  and  _479
REMARK  190  A    between atoms: _479  and  _480
REMARK  191  A    between atoms: _480  and  _481
REMARK  192  A    between atoms: _481  and  _482
REMARK  193  A    between atoms: _486  and  _488
REMARK  194  A    between atoms: _488  and  _489
REMARK  195  A    between atoms: _488  and  _491
REMARK  196  A    between atoms: _491  and  _492
REMARK  197  A    between atoms: _497  and  _499
REMARK  198  A    between atoms: _499  and  _500
REMARK  199  A    between atoms: _499  and  _502
REMARK  200  A    between atoms: _502  and  _503
REMARK  201  A    between atoms: _503  and  _504
REMARK  202  A    between atoms: _504  and  _505
REMARK  203  A    between atoms: _514  and  _516
REMARK  204  A    between atoms: _516  and  _517
REMARK  205  A    between atoms: _516  and  _519
REMARK  206  A    between atoms: _519  and  _520
REMARK  207  A    between atoms: _520  and  _521
REMARK  208  A    between atoms: _526  and  _528
REMARK  209  A    between atoms: _528  and  _529
REMARK  210  A    between atoms: _528  and  _531
REMARK  211  A    between atoms: _531  and  _532
REMARK  212  A    between atoms: _532  and  _533
REMARK  213  A    between atoms: _538  and  _540
REMARK  214  A    between atoms: _540  and  _541
REMARK  215  A    between atoms: _540  and  _543
REMARK  216  A    between atoms: _543  and  _544
REMARK  217  A    between atoms: _544  and  _545
REMARK  218  A    between atoms: _547  and  _549
REMARK  219  A    between atoms: _549  and  _550
REMARK  220  A    between atoms: _549  and  _552
REMARK  221  A    between atoms: _552  and  _553
REMARK  222  A    between atoms: _555  and  _557
REMARK  223  A    between atoms: _557  and  _558
REMARK  224  A    between atoms: _557  and  _560
REMARK  225  A    between atoms: _560  and  _561
REMARK  226  A    between atoms: _566  and  _567
REMARK  227  A    between atoms: _569  and  _571
REMARK  228  A    between atoms: _571  and  _572
REMARK  229  A    between atoms: _571  and  _574
REMARK  230  A    between atoms: _574  and  _575
REMARK  231  A    between atoms: _585  and  _587
REMARK  232  A    between atoms: _587  and  _588
REMARK  233  A    between atoms: _587  and  _590
REMARK  234  A    between atoms: _590  and  _591
REMARK  235  A    between atoms: _594  and  _596
REMARK  236  A    between atoms: _596  and  _597
REMARK  237  A    between atoms: _600  and  _602
REMARK  238  A    between atoms: _602  and  _603
REMARK  239  A    between atoms: _602  and  _605
REMARK  240  A    between atoms: _605  and  _606
REMARK                            x       y       z     vdW  Elec       q    Type
REMARK                         _______ _______ _______ _____ _____    ______ ____
ROOT
ATOM      1  C   SER A   2     -29.923  16.982   0.817  0.00  0.00    +0.243 C 
ATOM      2  N   LYS A   3     -31.222  16.885   0.568  0.00  0.00    -0.298 N 
ATOM      3  H   LYS A   3     -31.866  16.625   1.342  0.00  0.00    +0.150 HD
ATOM      4  O   SER A   2     -29.045  16.891  -0.046  0.00  0.00    -0.273 OA
ENDROOT
BRANCH   1   5
ATOM      5  CA  SER A   2     -29.555  17.171   2.272  0.00  0.00    +0.178 C 
BRANCH   5   8
ATOM      6  C   GLY A   1     -27.729  16.175   3.535  0.00  0.00    +0.240 C 
ATOM      7  O   GLY A   1     -28.475  15.907   4.488  0.00  0.00    -0.274 OA
ATOM      8  N   SER A   2     -28.163  16.818   2.462  0.00  0.00    -0.295 N 
ATOM      9  H   SER A   2     -27.477  17.080   1.726  0.00  0.00    +0.150 HD
BRANCH   6  10
ATOM     10  CA  GLY A   1     -26.241  15.820   3.561  0.00  0.00    +0.169 C 
BRANCH  10  11
ATOM     11  N   GLY A   1     -26.100  14.576   4.297  0.00  0.00    -0.236 NA
ATOM     12  H   GLY A   1     -26.736  13.789   4.056  0.00  0.00    +0.142 HD
ENDBRANCH  10  11
ENDBRANCH   6  10
ENDBRANCH   5   8
BRANCH   5  13
ATOM     13  CB  SER A   2     -29.850  18.609   2.687  0.00  0.00    +0.166 C 
BRANCH  13  14
ATOM     14  OG  SER A   2     -29.298  19.535   1.766  0.00  0.00    -0.380 OA
ATOM     15  H   SER A   2     -29.506  20.457   2.062  0.00  0.00    +0.211 HD
ENDBRANCH  13  14
ENDBRANCH   5  13
ENDBRANCH   1   5
BRANCH   2  16
ATOM     16  CA  LYS A   3     -31.772  17.132  -0.757  0.00  0.00    +0.137 C 
BRANCH  16  17
ATOM     17  C   LYS A   3     -32.473  18.482  -0.697  0.00  0.00    +0.227 C 
ATOM     18  O   LYS A   3     -33.119  18.810   0.296  0.00  0.00    -0.286 OA
ENDBRANCH  16  17
BRANCH  16  19
ATOM     19  CB  LYS A   3     -32.699  16.016  -1.183  0.00  0.00    +0.028 C 
BRANCH  19  20
ATOM     20  CG  LYS A   3     -31.946  14.690  -1.278  0.00  0.00    -0.000 C 
BRANCH  20  21
ATOM     21  CD  LYS A   3     -32.733  13.617  -2.007  0.00  0.00    -0.024 C 
BRANCH  21  22
ATOM     22  CE  LYS A   3     -33.963  13.159  -1.234  0.00  0.00    -0.086 C 
BRANCH  22  23
ATOM     23  NZ  LYS A   3     -34.777  12.095  -1.916  0.00  0.00    +0.380 N 
ATOM     24  HZ1 LYS A   3     -35.591  11.847  -1.318  0.00  0.00    -0.089 HD
ATOM     25  HZ2 LYS A   3     -34.187  11.252  -2.067  0.00  0.00    -0.089 HD
ATOM     26  HZ3 LYS A   3     -35.114  12.453  -2.832  0.00  0.00    -0.089 HD
ENDBRANCH  22  23
ENDBRANCH  21  22
ENDBRANCH  20  21
ENDBRANCH  19  20
ENDBRANCH  16  19
ENDBRANCH   2  16
TORSDOF 13
REMARK  Name = ../refined-set-2016/4ua8/4ua8_pocket.pdb
REMARK  240 active torsions:
REMARK  status: ('A' for Active; 'I' for Inactive)
REMARK    1  A    between atoms: _1  and  _3
REMARK    2  A    between atoms: _3  and  _4
REMARK    3  A    between atoms: _7  and  _8
REMARK    4  A    between atoms: _13  and  _15
REMARK    5  A    between atoms: _15  and  _16
REMARK    6  A    between atoms: _19  and  _21
REMARK    7  A    between atoms: _21  and  _22
REMARK    8  A    between atoms: _21  and  _24
REMARK    9  A    between atoms: _24  and  _25
REMARK   10  A    between atoms: _25  and  _26
REMARK   11  A    between atoms: _29  and  _31
REMARK   12  A    between atoms: _31  and  _32
REMARK   13  A    between atoms: _31  and  _34
REMARK   14  A    between atoms: _34  and  _35
REMARK   15  A    between atoms: _38  and  _40
REMARK   16  A    between atoms: _40  and  _41
REMARK   17  A    between atoms: _40  and  _43
REMARK   18  A    between atoms: _43  and  _44
REMARK   19  A    between atoms: _46  and  _48
REMARK   20  A    between atoms: _48  and  _49
REMARK   21  A    between atoms: _48  and  _51
REMARK   22  A    between atoms: _51  and  _52
REMARK   23  A    between atoms: _54  and  _56
REMARK   24  A    between atoms: _56  and  _57
REMARK   25  A    between atoms: _56  and  _59
REMARK   26  A    between atoms: _59  and  _60
REMARK   27  A    between atoms: _60  and  _61
REMARK   28  A    between atoms: _64  and  _66
REMARK   29  A    between atoms: _66  and  _67
REMARK   30  A    between atoms: _66  and  _69
REMARK   31  A    between atoms: _69  and  _70
REMARK   32  A    between atoms: _72  and  _74
REMARK   33  A    between atoms: _74  and  _75
REMARK   34  A    between atoms: _74  and  _77
REMARK   35  A    between atoms: _77  and  _78
REMARK   36  A    between atoms: _81  and  _83
REMARK   37  A    between atoms: _83  and  _84
REMARK   38  A    between atoms: _87  and  _89
REMARK   39  A    between atoms: _89  and  _90
REMARK   40  A    between atoms: _89  and  _92
REMARK   41  A    between atoms: _92  and  _93
REMARK   42  A    between atoms: _93  and  _94
REMARK   43  A    between atoms: _94  and  _95
REMARK   44  A    between atoms: _95  and  _96
REMARK   45  A    between atoms: _100  and  _102
REMARK   46  A    between atoms: _102  and  _103
REMARK   47  A    between atoms: _102  and  _105
REMARK   48  A    between atoms: _105  and  _106
REMARK   49  A    between atoms: _109  and  _111
REMARK   50  A    between atoms: _111  and  _112
REMARK   51  A    between atoms: _111  and  _114
REMARK   52  A    between atoms: _114  and  _115
REMARK   53  A    between atoms: _115  and  _116
REMARK   54  A    between atoms: _118  and  _120
REMARK   55  A    between atoms: _120  and  _121
REMARK   56  A    between atoms: _120  and  _123
REMARK   57  A    between atoms: _123  and  _124
REMARK   58  A    between atoms: _130  and  _132
REMARK   59  A    between atoms: _132  and  _133
REMARK   60  A    between atoms: _136  and  _138
REMARK   61  A    between atoms: _138  and  _139
REMARK   62  A    between atoms: _138  and  _141
REMARK   63  A    between atoms: _141  and  _142
REMARK   64  A    between atoms: _147  and  _149
REMARK   65  A    between atoms: _149  and  _150
REMARK   66  A    between atoms: _149  and  _152
REMARK   67  A    between atoms: _152  and  _153
REMARK   68  A    between atoms: _156  and  _158
REMARK   69  A    between atoms: _158  and  _159
REMARK   70  A    between atoms: _158  and  _161
REMARK   71  A    between atoms: _161  and  _162
REMARK   72  A    between atoms: _162  and  _163
REMARK   73  A    between atoms: _168  and  _170
REMARK   74  A    between atoms: _170  and  _171
REMARK   75  A    between atoms: _170  and  _173
REMARK   76  A    between atoms: _173  and  _174
REMARK   77  A    between atoms: _178  and  _179
REMARK   78  A    between atoms: _184  and  _186
REMARK   79  A    between atoms: _186  and  _187
REMARK   80  A    between atoms: _186  and  _189
REMARK   81  A    between atoms: _189  and  _190
REMARK   82  A    between atoms: _195  and  _196
REMARK   83  A    between atoms: _198  and  _200
REMARK   84  A    between atoms: _200  and  _201
REMARK   85  A    between atoms: _200  and  _203
REMARK   86  A    between atoms: _203  and  _204
REMARK   87  A    between atoms: _207  and  _209
REMARK   88  A    between atoms: _209  and  _210
REMARK   89  A    between atoms: _209  and  _212
REMARK   90  A    between atoms: _212  and  _213
REMARK   91  A    between atoms: _215  and  _217
REMARK   92  A    between atoms: _217  and  _218
REMARK   93  A    between atoms: _217  and  _220
REMARK   94  A    between atoms: _220  and  _221
REMARK   95  A    between atoms: _226  and  _228
REMARK   96  A    between atoms: _228  and  _229
REMARK   97  A    between atoms: _228  and  _231
REMARK   98  A    between atoms: _231  and  _232
REMARK   99  A    between atoms: _235  and  _237
REMARK  100  A    between atoms: _237  and  _238
REMARK  101  A    between atoms: _237  and  _240
REMARK  102  A    between atoms: _240  and  _241
REMARK  103  A    between atoms: _252  and  _253
REMARK  104  A    between atoms: _258  and  _260
REMARK  105  A    between atoms: _260  and  _261
REMARK  106  A    between atoms: _260  and  _263
REMARK  107  A    between atoms: _263  and  _264
REMARK  108  A    between atoms: _267  and  _269
REMARK  109  A    between atoms: _269  and  _270
REMARK  110  A    between atoms: _269  and  _272
REMARK  111  A    between atoms: _272  and  _273
REMARK  112  A    between atoms: _278  and  _280
REMARK  113  A    between atoms: _280  and  _281
REMARK  114  A    between atoms: _283  and  _285
REMARK  115  A    between atoms: _285  and  _286
REMARK  116  A    between atoms: _285  and  _288
REMARK  117  A    between atoms: _288  and  _289
REMARK  118  A    between atoms: _299  and  _301
REMARK  119  A    between atoms: _301  and  _302
REMARK  120  A    between atoms: _301  and  _304
REMARK  121  A    between atoms: _304  and  _305
REMARK  122  A    between atoms: _310  and  _311
REMARK  123  A    between atoms: _313  and  _315
REMARK  124  A    between atoms: _315  and  _316
REMARK  125  A    between atoms: _315  and  _318
REMARK  126  A    between atoms: _318  and  _319
REMARK  127  A    between atoms: _322  and  _324
REMARK  128  A    between atoms: _324  and  _325
REMARK  129  A    between atoms: _324  and  _327
REMARK  130  A    between atoms: _327  and  _328
REMARK  131  A    between atoms: _333  and  _335
REMARK  132  A    between atoms: _335  and  _336
REMARK  133  A    between atoms: _335  and  _338
REMARK  134  A    between atoms: _338  and  _339
REMARK  135  A    between atoms: _344  and  _346
REMARK  136  A    between atoms: _346  and  _347
REMARK  137  A    between atoms: _346  and  _349
REMARK  138  A    between atoms: _349  and  _350
REMARK  139  A    between atoms: _350  and  _351
REMARK  140  A    between atoms: _354  and  _356
REMARK  141  A    between atoms: _356  and  _357
REMARK  142  A    between atoms: _359  and  _361
REMARK  143  A    between atoms: _361  and  _362
REMARK  144  A    between atoms: _361  and  _364
REMARK  145  A    between atoms: _364  and  _365
REMARK  146  A    between atoms: _367  and  _369
REMARK  147  A    between atoms: _369  and  _370
REMARK  148  A    between atoms: _369  and  _372
REMARK  149  A    between atoms: _372  and  _373
REMARK  150  A    between atoms: _378  and  _379
REMARK  151  A    between atoms: _381  and  _383
REMARK  152  A    between atoms: _383  and  _384
REMARK  153  A    between atoms: _383  and  _386
REMARK  154  A    between atoms: _386  and  _387
REMARK  155  A    between atoms: _392  and  _394
REMARK  156  A    between atoms: _394  and  _395
REMARK  157  A    between atoms: _397  and  _399
REMARK  158  A    between atoms: _399  and  _400
REMARK  159  A    between atoms: _399  and  _402
REMARK  160  A    between atoms: _402  and  _403
REMARK  161  A    between atoms: _408  and  _410
REMARK  162  A    between atoms: _410  and  _411
REMARK  163  A    between atoms: _410  and  _413
REMARK  164  A    between atoms: _413  and  _414
REMARK  165  A    between atoms: _424  and  _426
REMARK  166  A    between atoms: _426  and  _427
REMARK  167  A    between atoms: _426  and  _429
REMARK  168  A    between atoms: _429  and  _430
REMARK  169  A    between atoms: _435  and  _437
REMARK  170  A    between atoms: _437  and  _438
REMARK  171  A    between atoms: _437  and  _440
REMARK  172  A    between atoms: _440  and  _441
REMARK  173  A    between atoms: _441  and  _442
REMARK  174  A    between atoms: _442  and  _443
REMARK  175  A    between atoms: _443  and  _444
REMARK  176  A    between atoms: _448  and  _450
REMARK  177  A    between atoms: _450  and  _451
REMARK  178  A    between atoms: _450  and  _453
REMARK  179  A    between atoms: _453  and  _454
REMARK  180  A    between atoms: _460  and  _462
REMARK  181  A    between atoms: _462  and  _463
REMARK  182  A    between atoms: _465  and  _467
REMARK  183  A    between atoms: _467  and  _468
REMARK  184  A    between atoms: _467  and  _470
REMARK  185  A    between atoms: _470  and  _471
REMARK  186  A    between atoms: _473  and  _475
REMARK  187  A    between atoms: _475  and  _476
REMARK  188  A    between atoms: _475  and  _478
REMARK  189  A    between atoms: _478  and  _479
REMARK  190  A    between atoms: _479  and  _480
REMARK  191  A    between atoms: _480  and  _481
REMARK  192  A    between atoms: _481  and  _482
REMARK  193  A    between atoms: _486  and  _488
REMARK  194  A    between atoms: _488  and  _489
REMARK  195  A    between atoms: _488  and  _491
REMARK  196  A    between atoms: _491  and  _492
REMARK  197  A    between atoms: _497  and  _499
REMARK  198  A    between atoms: _499  and  _500
REMARK  199  A    between atoms: _499  and  _502
REMARK  200  A    between atoms: _502  and  _503
REMARK  201  A    between atoms: _503  and  _504
REMARK  202  A    between atoms: _504  and  _505
REMARK  203  A    between atoms: _514  and  _516
REMARK  204  A    between atoms: _516  and  _517
REMARK  205  A    between atoms: _516  and  _519
REMARK  206  A    between atoms: _519  and  _520
REMARK  207  A    between atoms: _520  and  _521
REMARK  208  A    between atoms: _526  and  _528
REMARK  209  A    between atoms: _528  and  _529
REMARK  210  A    between atoms: _528  and  _531
REMARK  211  A    between atoms: _531  and  _532
REMARK  212  A    between atoms: _532  and  _533
REMARK  213  A    between atoms: _538  and  _540
REMARK  214  A    between atoms: _540  and  _541
REMARK  215  A    between atoms: _540  and  _543
REMARK  216  A    between atoms: _543  and  _544
REMARK  217  A    between atoms: _544  and  _545
REMARK  218  A    between atoms: _547  and  _549
REMARK  219  A    between atoms: _549  and  _550
REMARK  220  A    between atoms: _549  and  _552
REMARK  221  A    between atoms: _552  and  _553
REMARK  222  A    between atoms: _555  and  _557
REMARK  223  A    between atoms: _557  and  _558
REMARK  224  A    between atoms: _557  and  _560
REMARK  225  A    between atoms: _560  and  _561
REMARK  226  A    between atoms: _566  and  _567
REMARK  227  A    between atoms: _569  and  _571
REMARK  228  A    between atoms: _571  and  _572
REMARK  229  A    between atoms: _571  and  _574
REMARK  230  A    between atoms: _574  and  _575
REMARK  231  A    between atoms: _585  and  _587
REMARK  232  A    between atoms: _587  and  _588
REMARK  233  A    between atoms: _587  and  _590
REMARK  234  A    between atoms: _590  and  _591
REMARK  235  A    between atoms: _594  and  _596
REMARK  236  A    between atoms: _596  and  _597
REMARK  237  A    between atoms: _600  and  _602
REMARK  238  A    between atoms: _602  and  _603
REMARK  239  A    between atoms: _602  and  _605
REMARK  240  A    between atoms: _605  and  _606
REMARK                            x       y       z     vdW  Elec       q    Type
REMARK                         _______ _______ _______ _____ _____    ______ ____
ROOT
ATOM      1  CB  HIS A   1     -42.761  15.742   1.553  0.00  0.00    +0.072 C 
ENDROOT
BRANCH   1   2
ATOM      2  CG  HIS A   1     -42.023  15.322   0.323  0.00  0.00    +0.082 A 
ATOM      3  ND1 HIS A   1     -40.735  15.755   0.050  0.00  0.00    -0.227 NA
ATOM      4  CE1 HIS A   1     -40.344  15.236  -1.102  0.00  0.00    +0.199 A 
ATOM      5  NE2 HIS A   1     -41.318  14.480  -1.581  0.00  0.00    -0.221 NA
ATOM      6  CD2 HIS A   1     -42.379  14.526  -0.711  0.00  0.00    +0.115 A 
ENDBRANCH   1   2
BRANCH   1   7
ATOM      7  CA  HIS A   1     -44.184  15.165   1.674  0.00  0.00    +0.139 C 
BRANCH   7   8
ATOM      8  N   HIS A   1     -45.090  16.184   2.184  0.00  0.00    -0.239 NA
ATOM      9  H   HIS A   1     -44.711  17.101   2.497  0.00  0.00    +0.142 HD
ENDBRANCH   7   8
BRANCH   7  10
ATOM     10  C   HIS A   1     -44.199  13.958   2.599  0.00  0.00    +0.224 C 
ATOM     11  O   HIS A   1     -44.060  12.799   2.165  0.00  0.00    -0.287 OA
ENDBRANCH   7  10
ENDBRANCH   1   7
TORSDOF 4
REMARK  Name = ../refined-set-2016/4ua8/4ua8_pocket.pdb
REMARK  240 active torsions:
REMARK  status: ('A' for Active; 'I' for Inactive)
REMARK    1  A    between atoms: _1  and  _3
REMARK    2  A    between atoms: _3  and  _4
REMARK    3  A    between atoms: _7  and  _8
REMARK    4  A    between atoms: _13  and  _15
REMARK    5  A    between atoms: _15  and  _16
REMARK    6  A    between atoms: _19  and  _21
REMARK    7  A    between atoms: _21  and  _22
REMARK    8  A    between atoms: _21  and  _24
REMARK    9  A    between atoms: _24  and  _25
REMARK   10  A    between atoms: _25  and  _26
REMARK   11  A    between atoms: _29  and  _31
REMARK   12  A    between atoms: _31  and  _32
REMARK   13  A    between atoms: _31  and  _34
REMARK   14  A    between atoms: _34  and  _35
REMARK   15  A    between atoms: _38  and  _40
REMARK   16  A    between atoms: _40  and  _41
REMARK   17  A    between atoms: _40  and  _43
REMARK   18  A    between atoms: _43  and  _44
REMARK   19  A    between atoms: _46  and  _48
REMARK   20  A    between atoms: _48  and  _49
REMARK   21  A    between atoms: _48  and  _51
REMARK   22  A    between atoms: _51  and  _52
REMARK   23  A    between atoms: _54  and  _56
REMARK   24  A    between atoms: _56  and  _57
REMARK   25  A    between atoms: _56  and  _59
REMARK   26  A    between atoms: _59  and  _60
REMARK   27  A    between atoms: _60  and  _61
REMARK   28  A    between atoms: _64  and  _66
REMARK   29  A    between atoms: _66  and  _67
REMARK   30  A    between atoms: _66  and  _69
REMARK   31  A    between atoms: _69  and  _70
REMARK   32  A    between atoms: _72  and  _74
REMARK   33  A    between atoms: _74  and  _75
REMARK   34  A    between atoms: _74  and  _77
REMARK   35  A    between atoms: _77  and  _78
REMARK   36  A    between atoms: _81  and  _83
REMARK   37  A    between atoms: _83  and  _84
REMARK   38  A    between atoms: _87  and  _89
REMARK   39  A    between atoms: _89  and  _90
REMARK   40  A    between atoms: _89  and  _92
REMARK   41  A    between atoms: _92  and  _93
REMARK   42  A    between atoms: _93  and  _94
REMARK   43  A    between atoms: _94  and  _95
REMARK   44  A    between atoms: _95  and  _96
REMARK   45  A    between atoms: _100  and  _102
REMARK   46  A    between atoms: _102  and  _103
REMARK   47  A    between atoms: _102  and  _105
REMARK   48  A    between atoms: _105  and  _106
REMARK   49  A    between atoms: _109  and  _111
REMARK   50  A    between atoms: _111  and  _112
REMARK   51  A    between atoms: _111  and  _114
REMARK   52  A    between atoms: _114  and  _115
REMARK   53  A    between atoms: _115  and  _116
REMARK   54  A    between atoms: _118  and  _120
REMARK   55  A    between atoms: _120  and  _121
REMARK   56  A    between atoms: _120  and  _123
REMARK   57  A    between atoms: _123  and  _124
REMARK   58  A    between atoms: _130  and  _132
REMARK   59  A    between atoms: _132  and  _133
REMARK   60  A    between atoms: _136  and  _138
REMARK   61  A    between atoms: _138  and  _139
REMARK   62  A    between atoms: _138  and  _141
REMARK   63  A    between atoms: _141  and  _142
REMARK   64  A    between atoms: _147  and  _149
REMARK   65  A    between atoms: _149  and  _150
REMARK   66  A    between atoms: _149  and  _152
REMARK   67  A    between atoms: _152  and  _153
REMARK   68  A    between atoms: _156  and  _158
REMARK   69  A    between atoms: _158  and  _159
REMARK   70  A    between atoms: _158  and  _161
REMARK   71  A    between atoms: _161  and  _162
REMARK   72  A    between atoms: _162  and  _163
REMARK   73  A    between atoms: _168  and  _170
REMARK   74  A    between atoms: _170  and  _171
REMARK   75  A    between atoms: _170  and  _173
REMARK   76  A    between atoms: _173  and  _174
REMARK   77  A    between atoms: _178  and  _179
REMARK   78  A    between atoms: _184  and  _186
REMARK   79  A    between atoms: _186  and  _187
REMARK   80  A    between atoms: _186  and  _189
REMARK   81  A    between atoms: _189  and  _190
REMARK   82  A    between atoms: _195  and  _196
REMARK   83  A    between atoms: _198  and  _200
REMARK   84  A    between atoms: _200  and  _201
REMARK   85  A    between atoms: _200  and  _203
REMARK   86  A    between atoms: _203  and  _204
REMARK   87  A    between atoms: _207  and  _209
REMARK   88  A    between atoms: _209  and  _210
REMARK   89  A    between atoms: _209  and  _212
REMARK   90  A    between atoms: _212  and  _213
REMARK   91  A    between atoms: _215  and  _217
REMARK   92  A    between atoms: _217  and  _218
REMARK   93  A    between atoms: _217  and  _220
REMARK   94  A    between atoms: _220  and  _221
REMARK   95  A    between atoms: _226  and  _228
REMARK   96  A    between atoms: _228  and  _229
REMARK   97  A    between atoms: _228  and  _231
REMARK   98  A    between atoms: _231  and  _232
REMARK   99  A    between atoms: _235  and  _237
REMARK  100  A    between atoms: _237  and  _238
REMARK  101  A    between atoms: _237  and  _240
REMARK  102  A    between atoms: _240  and  _241
REMARK  103  A    between atoms: _252  and  _253
REMARK  104  A    between atoms: _258  and  _260
REMARK  105  A    between atoms: _260  and  _261
REMARK  106  A    between atoms: _260  and  _263
REMARK  107  A    between atoms: _263  and  _264
REMARK  108  A    between atoms: _267  and  _269
REMARK  109  A    between atoms: _269  and  _270
REMARK  110  A    between atoms: _269  and  _272
REMARK  111  A    between atoms: _272  and  _273
REMARK  112  A    between atoms: _278  and  _280
REMARK  113  A    between atoms: _280  and  _281
REMARK  114  A    between atoms: _283  and  _285
REMARK  115  A    between atoms: _285  and  _286
REMARK  116  A    between atoms: _285  and  _288
REMARK  117  A    between atoms: _288  and  _289
REMARK  118  A    between atoms: _299  and  _301
REMARK  119  A    between atoms: _301  and  _302
REMARK  120  A    between atoms: _301  and  _304
REMARK  121  A    between atoms: _304  and  _305
REMARK  122  A    between atoms: _310  and  _311
REMARK  123  A    between atoms: _313  and  _315
REMARK  124  A    between atoms: _315  and  _316
REMARK  125  A    between atoms: _315  and  _318
REMARK  126  A    between atoms: _318  and  _319
REMARK  127  A    between atoms: _322  and  _324
REMARK  128  A    between atoms: _324  and  _325
REMARK  129  A    between atoms: _324  and  _327
REMARK  130  A    between atoms: _327  and  _328
REMARK  131  A    between atoms: _333  and  _335
REMARK  132  A    between atoms: _335  and  _336
REMARK  133  A    between atoms: _335  and  _338
REMARK  134  A    between atoms: _338  and  _339
REMARK  135  A    between atoms: _344  and  _346
REMARK  136  A    between atoms: _346  and  _347
REMARK  137  A    between atoms: _346  and  _349
REMARK  138  A    between atoms: _349  and  _350
REMARK  139  A    between atoms: _350  and  _351
REMARK  140  A    between atoms: _354  and  _356
REMARK  141  A    between atoms: _356  and  _357
REMARK  142  A    between atoms: _359  and  _361
REMARK  143  A    between atoms: _361  and  _362
REMARK  144  A    between atoms: _361  and  _364
REMARK  145  A    between atoms: _364  and  _365
REMARK  146  A    between atoms: _367  and  _369
REMARK  147  A    between atoms: _369  and  _370
REMARK  148  A    between atoms: _369  and  _372
REMARK  149  A    between atoms: _372  and  _373
REMARK  150  A    between atoms: _378  and  _379
REMARK  151  A    between atoms: _381  and  _383
REMARK  152  A    between atoms: _383  and  _384
REMARK  153  A    between atoms: _383  and  _386
REMARK  154  A    between atoms: _386  and  _387
REMARK  155  A    between atoms: _392  and  _394
REMARK  156  A    between atoms: _394  and  _395
REMARK  157  A    between atoms: _397  and  _399
REMARK  158  A    between atoms: _399  and  _400
REMARK  159  A    between atoms: _399  and  _402
REMARK  160  A    between atoms: _402  and  _403
REMARK  161  A    between atoms: _408  and  _410
REMARK  162  A    between atoms: _410  and  _411
REMARK  163  A    between atoms: _410  and  _413
REMARK  164  A    between atoms: _413  and  _414
REMARK  165  A    between atoms: _424  and  _426
REMARK  166  A    between atoms: _426  and  _427
REMARK  167  A    between atoms: _426  and  _429
REMARK  168  A    between atoms: _429  and  _430
REMARK  169  A    between atoms: _435  and  _437
REMARK  170  A    between atoms: _437  and  _438
REMARK  171  A    between atoms: _437  and  _440
REMARK  172  A    between atoms: _440  and  _441
REMARK  173  A    between atoms: _441  and  _442
REMARK  174  A    between atoms: _442  and  _443
REMARK  175  A    between atoms: _443  and  _444
REMARK  176  A    between atoms: _448  and  _450
REMARK  177  A    between atoms: _450  and  _451
REMARK  178  A    between atoms: _450  and  _453
REMARK  179  A    between atoms: _453  and  _454
REMARK  180  A    between atoms: _460  and  _462
REMARK  181  A    between atoms: _462  and  _463
REMARK  182  A    between atoms: _465  and  _467
REMARK  183  A    between atoms: _467  and  _468
REMARK  184  A    between atoms: _467  and  _470
REMARK  185  A    between atoms: _470  and  _471
REMARK  186  A    between atoms: _473  and  _475
REMARK  187  A    between atoms: _475  and  _476
REMARK  188  A    between atoms: _475  and  _478
REMARK  189  A    between atoms: _478  and  _479
REMARK  190  A    between atoms: _479  and  _480
REMARK  191  A    between atoms: _480  and  _481
REMARK  192  A    between atoms: _481  and  _482
REMARK  193  A    between atoms: _486  and  _488
REMARK  194  A    between atoms: _488  and  _489
REMARK  195  A    between atoms: _488  and  _491
REMARK  196  A    between atoms: _491  and  _492
REMARK  197  A    between atoms: _497  and  _499
REMARK  198  A    between atoms: _499  and  _500
REMARK  199  A    between atoms: _499  and  _502
REMARK  200  A    between atoms: _502  and  _503
REMARK  201  A    between atoms: _503  and  _504
REMARK  202  A    between atoms: _504  and  _505
REMARK  203  A    between atoms: _514  and  _516
REMARK  204  A    between atoms: _516  and  _517
REMARK  205  A    between atoms: _516  and  _519
REMARK  206  A    between atoms: _519  and  _520
REMARK  207  A    between atoms: _520  and  _521
REMARK  208  A    between atoms: _526  and  _528
REMARK  209  A    between atoms: _528  and  _529
REMARK  210  A    between atoms: _528  and  _531
REMARK  211  A    between atoms: _531  and  _532
REMARK  212  A    between atoms: _532  and  _533
REMARK  213  A    between atoms: _538  and  _540
REMARK  214  A    between atoms: _540  and  _541
REMARK  215  A    between atoms: _540  and  _543
REMARK  216  A    between atoms: _543  and  _544
REMARK  217  A    between atoms: _544  and  _545
REMARK  218  A    between atoms: _547  and  _549
REMARK  219  A    between atoms: _549  and  _550
REMARK  220  A    between atoms: _549  and  _552
REMARK  221  A    between atoms: _552  and  _553
REMARK  222  A    between atoms: _555  and  _557
REMARK  223  A    between atoms: _557  and  _558
REMARK  224  A    between atoms: _557  and  _560
REMARK  225  A    between atoms: _560  and  _561
REMARK  226  A    between atoms: _566  and  _567
REMARK  227  A    between atoms: _569  and  _571
REMARK  228  A    between atoms: _571  and  _572
REMARK  229  A    between atoms: _571  and  _574
REMARK  230  A    between atoms: _574  and  _575
REMARK  231  A    between atoms: _585  and  _587
REMARK  232  A    between atoms: _587  and  _588
REMARK  233  A    between atoms: _587  and  _590
REMARK  234  A    between atoms: _590  and  _591
REMARK  235  A    between atoms: _594  and  _596
REMARK  236  A    between atoms: _596  and  _597
REMARK  237  A    between atoms: _600  and  _602
REMARK  238  A    between atoms: _602  and  _603
REMARK  239  A    between atoms: _602  and  _605
REMARK  240  A    between atoms: _605  and  _606
REMARK                            x       y       z     vdW  Elec       q    Type
REMARK                         _______ _______ _______ _____ _____    ______ ____
ROOT
ATOM      1  NE  ARG A   1     -42.120   9.768  -2.342  0.00  0.00    -0.265 N 
ATOM      2  HE  ARG A   1     -42.386   8.830  -1.981  0.00  0.00    +0.259 HD
ATOM      3  CZ  ARG A   1     -40.864   9.935  -2.759  0.00  0.00    +0.342 C 
ATOM      4  NH2 ARG A   1     -40.001   8.919  -2.676  0.00  0.00    -0.292 N 
ATOM      5 HH21 ARG A   1     -40.310   8.005  -2.288  0.00  0.00    +0.255 HD
ATOM      6 HH22 ARG A   1     -39.020   9.042  -2.999  0.00  0.00    +0.255 HD
ATOM      7  NH1 ARG A   1     -40.461  11.097  -3.227  0.00  0.00    -0.292 N 
ATOM      8 HH11 ARG A   1     -41.124  11.897  -3.275  0.00  0.00    +0.255 HD
ATOM      9 HH12 ARG A   1     -39.479  11.216  -3.549  0.00  0.00    +0.255 HD
ENDROOT
BRANCH   1  10
ATOM     10  CD  ARG A   1     -43.155  10.810  -2.354  0.00  0.00    +0.174 C 
BRANCH  10  11
ATOM     11  CG  ARG A   1     -43.882  10.881  -0.967  0.00  0.00    +0.045 C 
BRANCH  11  12
ATOM     12  CB  ARG A   1     -44.624   9.625  -0.686  0.00  0.00    +0.029 C 
BRANCH  12  13
ATOM     13  CA  ARG A   1     -45.178   9.456   0.738  0.00  0.00    +0.133 C 
BRANCH  13  14
ATOM     14  N   ARG A   1     -46.057  10.574   1.051  0.00  0.00    -0.239 NA
ATOM     15  H   ARG A   1     -45.687  11.420   1.531  0.00  0.00    +0.142 HD
ENDBRANCH  13  14
BRANCH  13  16
ATOM     16  C   ARG A   1     -44.078   9.199   1.772  0.00  0.00    +0.224 C 
ATOM     17  O   ARG A   1     -43.081   8.518   1.501  0.00  0.00    -0.287 OA
ENDBRANCH  13  16
ENDBRANCH  12  13
ENDBRANCH  11  12
ENDBRANCH  10  11
ENDBRANCH   1  10
TORSDOF 6
REMARK  Name = ../refined-set-2016/4ua8/4ua8_pocket.pdb
REMARK  240 active torsions:
REMARK  status: ('A' for Active; 'I' for Inactive)
REMARK    1  A    between atoms: _1  and  _3
REMARK    2  A    between atoms: _3  and  _4
REMARK    3  A    between atoms: _7  and  _8
REMARK    4  A    between atoms: _13  and  _15
REMARK    5  A    between atoms: _15  and  _16
REMARK    6  A    between atoms: _19  and  _21
REMARK    7  A    between atoms: _21  and  _22
REMARK    8  A    between atoms: _21  and  _24
REMARK    9  A    between atoms: _24  and  _25
REMARK   10  A    between atoms: _25  and  _26
REMARK   11  A    between atoms: _29  and  _31
REMARK   12  A    between atoms: _31  and  _32
REMARK   13  A    between atoms: _31  and  _34
REMARK   14  A    between atoms: _34  and  _35
REMARK   15  A    between atoms: _38  and  _40
REMARK   16  A    between atoms: _40  and  _41
REMARK   17  A    between atoms: _40  and  _43
REMARK   18  A    between atoms: _43  and  _44
REMARK   19  A    between atoms: _46  and  _48
REMARK   20  A    between atoms: _48  and  _49
REMARK   21  A    between atoms: _48  and  _51
REMARK   22  A    between atoms: _51  and  _52
REMARK   23  A    between atoms: _54  and  _56
REMARK   24  A    between atoms: _56  and  _57
REMARK   25  A    between atoms: _56  and  _59
REMARK   26  A    between atoms: _59  and  _60
REMARK   27  A    between atoms: _60  and  _61
REMARK   28  A    between atoms: _64  and  _66
REMARK   29  A    between atoms: _66  and  _67
REMARK   30  A    between atoms: _66  and  _69
REMARK   31  A    between atoms: _69  and  _70
REMARK   32  A    between atoms: _72  and  _74
REMARK   33  A    between atoms: _74  and  _75
REMARK   34  A    between atoms: _74  and  _77
REMARK   35  A    between atoms: _77  and  _78
REMARK   36  A    between atoms: _81  and  _83
REMARK   37  A    between atoms: _83  and  _84
REMARK   38  A    between atoms: _87  and  _89
REMARK   39  A    between atoms: _89  and  _90
REMARK   40  A    between atoms: _89  and  _92
REMARK   41  A    between atoms: _92  and  _93
REMARK   42  A    between atoms: _93  and  _94
REMARK   43  A    between atoms: _94  and  _95
REMARK   44  A    between atoms: _95  and  _96
REMARK   45  A    between atoms: _100  and  _102
REMARK   46  A    between atoms: _102  and  _103
REMARK   47  A    between atoms: _102  and  _105
REMARK   48  A    between atoms: _105  and  _106
REMARK   49  A    between atoms: _109  and  _111
REMARK   50  A    between atoms: _111  and  _112
REMARK   51  A    between atoms: _111  and  _114
REMARK   52  A    between atoms: _114  and  _115
REMARK   53  A    between atoms: _115  and  _116
REMARK   54  A    between atoms: _118  and  _120
REMARK   55  A    between atoms: _120  and  _121
REMARK   56  A    between atoms: _120  and  _123
REMARK   57  A    between atoms: _123  and  _124
REMARK   58  A    between atoms: _130  and  _132
REMARK   59  A    between atoms: _132  and  _133
REMARK   60  A    between atoms: _136  and  _138
REMARK   61  A    between atoms: _138  and  _139
REMARK   62  A    between atoms: _138  and  _141
REMARK   63  A    between atoms: _141  and  _142
REMARK   64  A    between atoms: _147  and  _149
REMARK   65  A    between atoms: _149  and  _150
REMARK   66  A    between atoms: _149  and  _152
REMARK   67  A    between atoms: _152  and  _153
REMARK   68  A    between atoms: _156  and  _158
REMARK   69  A    between atoms: _158  and  _159
REMARK   70  A    between atoms: _158  and  _161
REMARK   71  A    between atoms: _161  and  _162
REMARK   72  A    between atoms: _162  and  _163
REMARK   73  A    between atoms: _168  and  _170
REMARK   74  A    between atoms: _170  and  _171
REMARK   75  A    between atoms: _170  and  _173
REMARK   76  A    between atoms: _173  and  _174
REMARK   77  A    between atoms: _178  and  _179
REMARK   78  A    between atoms: _184  and  _186
REMARK   79  A    between atoms: _186  and  _187
REMARK   80  A    between atoms: _186  and  _189
REMARK   81  A    between atoms: _189  and  _190
REMARK   82  A    between atoms: _195  and  _196
REMARK   83  A    between atoms: _198  and  _200
REMARK   84  A    between atoms: _200  and  _201
REMARK   85  A    between atoms: _200  and  _203
REMARK   86  A    between atoms: _203  and  _204
REMARK   87  A    between atoms: _207  and  _209
REMARK   88  A    between atoms: _209  and  _210
REMARK   89  A    between atoms: _209  and  _212
REMARK   90  A    between atoms: _212  and  _213
REMARK   91  A    between atoms: _215  and  _217
REMARK   92  A    between atoms: _217  and  _218
REMARK   93  A    between atoms: _217  and  _220
REMARK   94  A    between atoms: _220  and  _221
REMARK   95  A    between atoms: _226  and  _228
REMARK   96  A    between atoms: _228  and  _229
REMARK   97  A    between atoms: _228  and  _231
REMARK   98  A    between atoms: _231  and  _232
REMARK   99  A    between atoms: _235  and  _237
REMARK  100  A    between atoms: _237  and  _238
REMARK  101  A    between atoms: _237  and  _240
REMARK  102  A    between atoms: _240  and  _241
REMARK  103  A    between atoms: _252  and  _253
REMARK  104  A    between atoms: _258  and  _260
REMARK  105  A    between atoms: _260  and  _261
REMARK  106  A    between atoms: _260  and  _263
REMARK  107  A    between atoms: _263  and  _264
REMARK  108  A    between atoms: _267  and  _269
REMARK  109  A    between atoms: _269  and  _270
REMARK  110  A    between atoms: _269  and  _272
REMARK  111  A    between atoms: _272  and  _273
REMARK  112  A    between atoms: _278  and  _280
REMARK  113  A    between atoms: _280  and  _281
REMARK  114  A    between atoms: _283  and  _285
REMARK  115  A    between atoms: _285  and  _286
REMARK  116  A    between atoms: _285  and  _288
REMARK  117  A    between atoms: _288  and  _289
REMARK  118  A    between atoms: _299  and  _301
REMARK  119  A    between atoms: _301  and  _302
REMARK  120  A    between atoms: _301  and  _304
REMARK  121  A    between atoms: _304  and  _305
REMARK  122  A    between atoms: _310  and  _311
REMARK  123  A    between atoms: _313  and  _315
REMARK  124  A    between atoms: _315  and  _316
REMARK  125  A    between atoms: _315  and  _318
REMARK  126  A    between atoms: _318  and  _319
REMARK  127  A    between atoms: _322  and  _324
REMARK  128  A    between atoms: _324  and  _325
REMARK  129  A    between atoms: _324  and  _327
REMARK  130  A    between atoms: _327  and  _328
REMARK  131  A    between atoms: _333  and  _335
REMARK  132  A    between atoms: _335  and  _336
REMARK  133  A    between atoms: _335  and  _338
REMARK  134  A    between atoms: _338  and  _339
REMARK  135  A    between atoms: _344  and  _346
REMARK  136  A    between atoms: _346  and  _347
REMARK  137  A    between atoms: _346  and  _349
REMARK  138  A    between atoms: _349  and  _350
REMARK  139  A    between atoms: _350  and  _351
REMARK  140  A    between atoms: _354  and  _356
REMARK  141  A    between atoms: _356  and  _357
REMARK  142  A    between atoms: _359  and  _361
REMARK  143  A    between atoms: _361  and  _362
REMARK  144  A    between atoms: _361  and  _364
REMARK  145  A    between atoms: _364  and  _365
REMARK  146  A    between atoms: _367  and  _369
REMARK  147  A    between atoms: _369  and  _370
REMARK  148  A    between atoms: _369  and  _372
REMARK  149  A    between atoms: _372  and  _373
REMARK  150  A    between atoms: _378  and  _379
REMARK  151  A    between atoms: _381  and  _383
REMARK  152  A    between atoms: _383  and  _384
REMARK  153  A    between atoms: _383  and  _386
REMARK  154  A    between atoms: _386  and  _387
REMARK  155  A    between atoms: _392  and  _394
REMARK  156  A    between atoms: _394  and  _395
REMARK  157  A    between atoms: _397  and  _399
REMARK  158  A    between atoms: _399  and  _400
REMARK  159  A    between atoms: _399  and  _402
REMARK  160  A    between atoms: _402  and  _403
REMARK  161  A    between atoms: _408  and  _410
REMARK  162  A    between atoms: _410  and  _411
REMARK  163  A    between atoms: _410  and  _413
REMARK  164  A    between atoms: _413  and  _414
REMARK  165  A    between atoms: _424  and  _426
REMARK  166  A    between atoms: _426  and  _427
REMARK  167  A    between atoms: _426  and  _429
REMARK  168  A    between atoms: _429  and  _430
REMARK  169  A    between atoms: _435  and  _437
REMARK  170  A    between atoms: _437  and  _438
REMARK  171  A    between atoms: _437  and  _440
REMARK  172  A    between atoms: _440  and  _441
REMARK  173  A    between atoms: _441  and  _442
REMARK  174  A    between atoms: _442  and  _443
REMARK  175  A    between atoms: _443  and  _444
REMARK  176  A    between atoms: _448  and  _450
REMARK  177  A    between atoms: _450  and  _451
REMARK  178  A    between atoms: _450  and  _453
REMARK  179  A    between atoms: _453  and  _454
REMARK  180  A    between atoms: _460  and  _462
REMARK  181  A    between atoms: _462  and  _463
REMARK  182  A    between atoms: _465  and  _467
REMARK  183  A    between atoms: _467  and  _468
REMARK  184  A    between atoms: _467  and  _470
REMARK  185  A    between atoms: _470  and  _471
REMARK  186  A    between atoms: _473  and  _475
REMARK  187  A    between atoms: _475  and  _476
REMARK  188  A    between atoms: _475  and  _478
REMARK  189  A    between atoms: _478  and  _479
REMARK  190  A    between atoms: _479  and  _480
REMARK  191  A    between atoms: _480  and  _481
REMARK  192  A    between atoms: _481  and  _482
REMARK  193  A    between atoms: _486  and  _488
REMARK  194  A    between atoms: _488  and  _489
REMARK  195  A    between atoms: _488  and  _491
REMARK  196  A    between atoms: _491  and  _492
REMARK  197  A    between atoms: _497  and  _499
REMARK  198  A    between atoms: _499  and  _500
REMARK  199  A    between atoms: _499  and  _502
REMARK  200  A    between atoms: _502  and  _503
REMARK  201  A    between atoms: _503  and  _504
REMARK  202  A    between atoms: _504  and  _505
REMARK  203  A    between atoms: _514  and  _516
REMARK  204  A    between atoms: _516  and  _517
REMARK  205  A    between atoms: _516  and  _519
REMARK  206  A    between atoms: _519  and  _520
REMARK  207  A    between atoms: _520  and  _521
REMARK  208  A    between atoms: _526  and  _528
REMARK  209  A    between atoms: _528  and  _529
REMARK  210  A    between atoms: _528  and  _531
REMARK  211  A    between atoms: _531  and  _532
REMARK  212  A    between atoms: _532  and  _533
REMARK  213  A    between atoms: _538  and  _540
REMARK  214  A    between atoms: _540  and  _541
REMARK  215  A    between atoms: _540  and  _543
REMARK  216  A    between atoms: _543  and  _544
REMARK  217  A    between atoms: _544  and  _545
REMARK  218  A    between atoms: _547  and  _549
REMARK  219  A    between atoms: _549  and  _550
REMARK  220  A    between atoms: _549  and  _552
REMARK  221  A    between atoms: _552  and  _553
REMARK  222  A    between atoms: _555  and  _557
REMARK  223  A    between atoms: _557  and  _558
REMARK  224  A    between atoms: _557  and  _560
REMARK  225  A    between atoms: _560  and  _561
REMARK  226  A    between atoms: _566  and  _567
REMARK  227  A    between atoms: _569  and  _571
REMARK  228  A    between atoms: _571  and  _572
REMARK  229  A    between atoms: _571  and  _574
REMARK  230  A    between atoms: _574  and  _575
REMARK  231  A    between atoms: _585  and  _587
REMARK  232  A    between atoms: _587  and  _588
REMARK  233  A    between atoms: _587  and  _590
REMARK  234  A    between atoms: _590  and  _591
REMARK  235  A    between atoms: _594  and  _596
REMARK  236  A    between atoms: _596  and  _597
REMARK  237  A    between atoms: _600  and  _602
REMARK  238  A    between atoms: _602  and  _603
REMARK  239  A    between atoms: _602  and  _605
REMARK  240  A    between atoms: _605  and  _606
REMARK                            x       y       z     vdW  Elec       q    Type
REMARK                         _______ _______ _______ _____ _____    ______ ____
ROOT
ATOM      1  CB  GLN A   1     -40.244  12.231   2.188  0.00  0.00    +0.035 C 
ENDROOT
BRANCH   1   2
ATOM      2  CA  GLN A   1     -40.497  11.440   3.481  0.00  0.00    +0.134 C 
BRANCH   2   3
ATOM      3  N   GLN A   1     -41.852  10.867   3.489  0.00  0.00    -0.239 NA
ATOM      4  H   GLN A   1     -42.620  11.326   2.958  0.00  0.00    +0.142 HD
ENDBRANCH   2   3
BRANCH   2   5
ATOM      5  C   GLN A   1     -40.301  12.310   4.706  0.00  0.00    +0.224 C 
ATOM      6  O   GLN A   1     -41.133  13.177   5.018  0.00  0.00    -0.287 OA
ENDBRANCH   2   5
ENDBRANCH   1   2
BRANCH   1   7
ATOM      7  CG  GLN A   1     -40.444  11.404   0.937  0.00  0.00    +0.087 C 
BRANCH   7   8
ATOM      8  CD  GLN A   1     -39.626  10.111   0.897  0.00  0.00    +0.219 C 
ATOM      9  NE2 GLN A   1     -40.298   8.984   1.000  0.00  0.00    -0.329 N 
ATOM     10 HE21 GLN A   1     -41.333   9.003   1.103  0.00  0.00    +0.145 HD
ATOM     11 HE22 GLN A   1     -39.794   8.074   0.978  0.00  0.00    +0.145 HD
ATOM     12  OE1 GLN A   1     -38.393  10.146   0.772  0.00  0.00    -0.275 OA
ENDBRANCH   7   8
ENDBRANCH   1   7
TORSDOF 5
REMARK  Name = ../refined-set-2016/4ua8/4ua8_pocket.pdb
REMARK  240 active torsions:
REMARK  status: ('A' for Active; 'I' for Inactive)
REMARK    1  A    between atoms: _1  and  _3
REMARK    2  A    between atoms: _3  and  _4
REMARK    3  A    between atoms: _7  and  _8
REMARK    4  A    between atoms: _13  and  _15
REMARK    5  A    between atoms: _15  and  _16
REMARK    6  A    between atoms: _19  and  _21
REMARK    7  A    between atoms: _21  and  _22
REMARK    8  A    between atoms: _21  and  _24
REMARK    9  A    between atoms: _24  and  _25
REMARK   10  A    between atoms: _25  and  _26
REMARK   11  A    between atoms: _29  and  _31
REMARK   12  A    between atoms: _31  and  _32
REMARK   13  A    between atoms: _31  and  _34
REMARK   14  A    between atoms: _34  and  _35
REMARK   15  A    between atoms: _38  and  _40
REMARK   16  A    between atoms: _40  and  _41
REMARK   17  A    between atoms: _40  and  _43
REMARK   18  A    between atoms: _43  and  _44
REMARK   19  A    between atoms: _46  and  _48
REMARK   20  A    between atoms: _48  and  _49
REMARK   21  A    between atoms: _48  and  _51
REMARK   22  A    between atoms: _51  and  _52
REMARK   23  A    between atoms: _54  and  _56
REMARK   24  A    between atoms: _56  and  _57
REMARK   25  A    between atoms: _56  and  _59
REMARK   26  A    between atoms: _59  and  _60
REMARK   27  A    between atoms: _60  and  _61
REMARK   28  A    between atoms: _64  and  _66
REMARK   29  A    between atoms: _66  and  _67
REMARK   30  A    between atoms: _66  and  _69
REMARK   31  A    between atoms: _69  and  _70
REMARK   32  A    between atoms: _72  and  _74
REMARK   33  A    between atoms: _74  and  _75
REMARK   34  A    between atoms: _74  and  _77
REMARK   35  A    between atoms: _77  and  _78
REMARK   36  A    between atoms: _81  and  _83
REMARK   37  A    between atoms: _83  and  _84
REMARK   38  A    between atoms: _87  and  _89
REMARK   39  A    between atoms: _89  and  _90
REMARK   40  A    between atoms: _89  and  _92
REMARK   41  A    between atoms: _92  and  _93
REMARK   42  A    between atoms: _93  and  _94
REMARK   43  A    between atoms: _94  and  _95
REMARK   44  A    between atoms: _95  and  _96
REMARK   45  A    between atoms: _100  and  _102
REMARK   46  A    between atoms: _102  and  _103
REMARK   47  A    between atoms: _102  and  _105
REMARK   48  A    between atoms: _105  and  _106
REMARK   49  A    between atoms: _109  and  _111
REMARK   50  A    between atoms: _111  and  _112
REMARK   51  A    between atoms: _111  and  _114
REMARK   52  A    between atoms: _114  and  _115
REMARK   53  A    between atoms: _115  and  _116
REMARK   54  A    between atoms: _118  and  _120
REMARK   55  A    between atoms: _120  and  _121
REMARK   56  A    between atoms: _120  and  _123
REMARK   57  A    between atoms: _123  and  _124
REMARK   58  A    between atoms: _130  and  _132
REMARK   59  A    between atoms: _132  and  _133
REMARK   60  A    between atoms: _136  and  _138
REMARK   61  A    between atoms: _138  and  _139
REMARK   62  A    between atoms: _138  and  _141
REMARK   63  A    between atoms: _141  and  _142
REMARK   64  A    between atoms: _147  and  _149
REMARK   65  A    between atoms: _149  and  _150
REMARK   66  A    between atoms: _149  and  _152
REMARK   67  A    between atoms: _152  and  _153
REMARK   68  A    between atoms: _156  and  _158
REMARK   69  A    between atoms: _158  and  _159
REMARK   70  A    between atoms: _158  and  _161
REMARK   71  A    between atoms: _161  and  _162
REMARK   72  A    between atoms: _162  and  _163
REMARK   73  A    between atoms: _168  and  _170
REMARK   74  A    between atoms: _170  and  _171
REMARK   75  A    between atoms: _170  and  _173
REMARK   76  A    between atoms: _173  and  _174
REMARK   77  A    between atoms: _178  and  _179
REMARK   78  A    between atoms: _184  and  _186
REMARK   79  A    between atoms: _186  and  _187
REMARK   80  A    between atoms: _186  and  _189
REMARK   81  A    between atoms: _189  and  _190
REMARK   82  A    between atoms: _195  and  _196
REMARK   83  A    between atoms: _198  and  _200
REMARK   84  A    between atoms: _200  and  _201
REMARK   85  A    between atoms: _200  and  _203
REMARK   86  A    between atoms: _203  and  _204
REMARK   87  A    between atoms: _207  and  _209
REMARK   88  A    between atoms: _209  and  _210
REMARK   89  A    between atoms: _209  and  _212
REMARK   90  A    between atoms: _212  and  _213
REMARK   91  A    between atoms: _215  and  _217
REMARK   92  A    between atoms: _217  and  _218
REMARK   93  A    between atoms: _217  and  _220
REMARK   94  A    between atoms: _220  and  _221
REMARK   95  A    between atoms: _226  and  _228
REMARK   96  A    between atoms: _228  and  _229
REMARK   97  A    between atoms: _228  and  _231
REMARK   98  A    between atoms: _231  and  _232
REMARK   99  A    between atoms: _235  and  _237
REMARK  100  A    between atoms: _237  and  _238
REMARK  101  A    between atoms: _237  and  _240
REMARK  102  A    between atoms: _240  and  _241
REMARK  103  A    between atoms: _252  and  _253
REMARK  104  A    between atoms: _258  and  _260
REMARK  105  A    between atoms: _260  and  _261
REMARK  106  A    between atoms: _260  and  _263
REMARK  107  A    between atoms: _263  and  _264
REMARK  108  A    between atoms: _267  and  _269
REMARK  109  A    between atoms: _269  and  _270
REMARK  110  A    between atoms: _269  and  _272
REMARK  111  A    between atoms: _272  and  _273
REMARK  112  A    between atoms: _278  and  _280
REMARK  113  A    between atoms: _280  and  _281
REMARK  114  A    between atoms: _283  and  _285
REMARK  115  A    between atoms: _285  and  _286
REMARK  116  A    between atoms: _285  and  _288
REMARK  117  A    between atoms: _288  and  _289
REMARK  118  A    between atoms: _299  and  _301
REMARK  119  A    between atoms: _301  and  _302
REMARK  120  A    between atoms: _301  and  _304
REMARK  121  A    between atoms: _304  and  _305
REMARK  122  A    between atoms: _310  and  _311
REMARK  123  A    between atoms: _313  and  _315
REMARK  124  A    between atoms: _315  and  _316
REMARK  125  A    between atoms: _315  and  _318
REMARK  126  A    between atoms: _318  and  _319
REMARK  127  A    between atoms: _322  and  _324
REMARK  128  A    between atoms: _324  and  _325
REMARK  129  A    between atoms: _324  and  _327
REMARK  130  A    between atoms: _327  and  _328
REMARK  131  A    between atoms: _333  and  _335
REMARK  132  A    between atoms: _335  and  _336
REMARK  133  A    between atoms: _335  and  _338
REMARK  134  A    between atoms: _338  and  _339
REMARK  135  A    between atoms: _344  and  _346
REMARK  136  A    between atoms: _346  and  _347
REMARK  137  A    between atoms: _346  and  _349
REMARK  138  A    between atoms: _349  and  _350
REMARK  139  A    between atoms: _350  and  _351
REMARK  140  A    between atoms: _354  and  _356
REMARK  141  A    between atoms: _356  and  _357
REMARK  142  A    between atoms: _359  and  _361
REMARK  143  A    between atoms: _361  and  _362
REMARK  144  A    between atoms: _361  and  _364
REMARK  145  A    between atoms: _364  and  _365
REMARK  146  A    between atoms: _367  and  _369
REMARK  147  A    between atoms: _369  and  _370
REMARK  148  A    between atoms: _369  and  _372
REMARK  149  A    between atoms: _372  and  _373
REMARK  150  A    between atoms: _378  and  _379
REMARK  151  A    between atoms: _381  and  _383
REMARK  152  A    between atoms: _383  and  _384
REMARK  153  A    between atoms: _383  and  _386
REMARK  154  A    between atoms: _386  and  _387
REMARK  155  A    between atoms: _392  and  _394
REMARK  156  A    between atoms: _394  and  _395
REMARK  157  A    between atoms: _397  and  _399
REMARK  158  A    between atoms: _399  and  _400
REMARK  159  A    between atoms: _399  and  _402
REMARK  160  A    between atoms: _402  and  _403
REMARK  161  A    between atoms: _408  and  _410
REMARK  162  A    between atoms: _410  and  _411
REMARK  163  A    between atoms: _410  and  _413
REMARK  164  A    between atoms: _413  and  _414
REMARK  165  A    between atoms: _424  and  _426
REMARK  166  A    between atoms: _426  and  _427
REMARK  167  A    between atoms: _426  and  _429
REMARK  168  A    between atoms: _429  and  _430
REMARK  169  A    between atoms: _435  and  _437
REMARK  170  A    between atoms: _437  and  _438
REMARK  171  A    between atoms: _437  and  _440
REMARK  172  A    between atoms: _440  and  _441
REMARK  173  A    between atoms: _441  and  _442
REMARK  174  A    between atoms: _442  and  _443
REMARK  175  A    between atoms: _443  and  _444
REMARK  176  A    between atoms: _448  and  _450
REMARK  177  A    between atoms: _450  and  _451
REMARK  178  A    between atoms: _450  and  _453
REMARK  179  A    between atoms: _453  and  _454
REMARK  180  A    between atoms: _460  and  _462
REMARK  181  A    between atoms: _462  and  _463
REMARK  182  A    between atoms: _465  and  _467
REMARK  183  A    between atoms: _467  and  _468
REMARK  184  A    between atoms: _467  and  _470
REMARK  185  A    between atoms: _470  and  _471
REMARK  186  A    between atoms: _473  and  _475
REMARK  187  A    between atoms: _475  and  _476
REMARK  188  A    between atoms: _475  and  _478
REMARK  189  A    between atoms: _478  and  _479
REMARK  190  A    between atoms: _479  and  _480
REMARK  191  A    between atoms: _480  and  _481
REMARK  192  A    between atoms: _481  and  _482
REMARK  193  A    between atoms: _486  and  _488
REMARK  194  A    between atoms: _488  and  _489
REMARK  195  A    between atoms: _488  and  _491
REMARK  196  A    between atoms: _491  and  _492
REMARK  197  A    between atoms: _497  and  _499
REMARK  198  A    between atoms: _499  and  _500
REMARK  199  A    between atoms: _499  and  _502
REMARK  200  A    between atoms: _502  and  _503
REMARK  201  A    between atoms: _503  and  _504
REMARK  202  A    between atoms: _504  and  _505
REMARK  203  A    between atoms: _514  and  _516
REMARK  204  A    between atoms: _516  and  _517
REMARK  205  A    between atoms: _516  and  _519
REMARK  206  A    between atoms: _519  and  _520
REMARK  207  A    between atoms: _520  and  _521
REMARK  208  A    between atoms: _526  and  _528
REMARK  209  A    between atoms: _528  and  _529
REMARK  210  A    between atoms: _528  and  _531
REMARK  211  A    between atoms: _531  and  _532
REMARK  212  A    between atoms: _532  and  _533
REMARK  213  A    between atoms: _538  and  _540
REMARK  214  A    between atoms: _540  and  _541
REMARK  215  A    between atoms: _540  and  _543
REMARK  216  A    between atoms: _543  and  _544
REMARK  217  A    between atoms: _544  and  _545
REMARK  218  A    between atoms: _547  and  _549
REMARK  219  A    between atoms: _549  and  _550
REMARK  220  A    between atoms: _549  and  _552
REMARK  221  A    between atoms: _552  and  _553
REMARK  222  A    between atoms: _555  and  _557
REMARK  223  A    between atoms: _557  and  _558
REMARK  224  A    between atoms: _557  and  _560
REMARK  225  A    between atoms: _560  and  _561
REMARK  226  A    between atoms: _566  and  _567
REMARK  227  A    between atoms: _569  and  _571
REMARK  228  A    between atoms: _571  and  _572
REMARK  229  A    between atoms: _571  and  _574
REMARK  230  A    between atoms: _574  and  _575
REMARK  231  A    between atoms: _585  and  _587
REMARK  232  A    between atoms: _587  and  _588
REMARK  233  A    between atoms: _587  and  _590
REMARK  234  A    between atoms: _590  and  _591
REMARK  235  A    between atoms: _594  and  _596
REMARK  236  A    between atoms: _596  and  _597
REMARK  237  A    between atoms: _600  and  _602
REMARK  238  A    between atoms: _602  and  _603
REMARK  239  A    between atoms: _602  and  _605
REMARK  240  A    between atoms: _605  and  _606
REMARK                            x       y       z     vdW  Elec       q    Type
REMARK                         _______ _______ _______ _____ _____    ______ ____
ROOT
ATOM      1  CB  GLN A   1     -22.616  15.182   2.579  0.00  0.00    +0.035 C 
ENDROOT
BRANCH   1   2
ATOM      2  CA  GLN A   1     -21.316  15.167   3.376  0.00  0.00    +0.134 C 
BRANCH   2   3
ATOM      3  N   GLN A   1     -21.628  15.239   4.804  0.00  0.00    -0.239 NA
ATOM      4  H   GLN A   1     -22.622  15.318   5.100  0.00  0.00    +0.142 HD
ENDBRANCH   2   3
BRANCH   2   5
ATOM      5  C   GLN A   1     -20.431  16.334   2.950  0.00  0.00    +0.224 C 
ATOM      6  O   GLN A   1     -20.825  17.477   3.079  0.00  0.00    -0.287 OA
ENDBRANCH   2   5
ENDBRANCH   1   2
BRANCH   1   7
ATOM      7  CG  GLN A   1     -22.433  15.302   1.078  0.00  0.00    +0.087 C 
BRANCH   7   8
ATOM      8  CD  GLN A   1     -21.702  14.138   0.453  0.00  0.00    +0.219 C 
ATOM      9  OE1 GLN A   1     -22.169  13.001   0.515  0.00  0.00    -0.275 OA
ATOM     10  NE2 GLN A   1     -20.564  14.425  -0.192  0.00  0.00    -0.329 N 
ATOM     11 HE21 GLN A   1     -20.212  15.403  -0.215  0.00  0.00    +0.145 HD
ATOM     12 HE22 GLN A   1     -20.033  13.670  -0.670  0.00  0.00    +0.145 HD
ENDBRANCH   7   8
ENDBRANCH   1   7
TORSDOF 5
REMARK  Name = ../refined-set-2016/4ua8/4ua8_pocket.pdb
REMARK  240 active torsions:
REMARK  status: ('A' for Active; 'I' for Inactive)
REMARK    1  A    between atoms: _1  and  _3
REMARK    2  A    between atoms: _3  and  _4
REMARK    3  A    between atoms: _7  and  _8
REMARK    4  A    between atoms: _13  and  _15
REMARK    5  A    between atoms: _15  and  _16
REMARK    6  A    between atoms: _19  and  _21
REMARK    7  A    between atoms: _21  and  _22
REMARK    8  A    between atoms: _21  and  _24
REMARK    9  A    between atoms: _24  and  _25
REMARK   10  A    between atoms: _25  and  _26
REMARK   11  A    between atoms: _29  and  _31
REMARK   12  A    between atoms: _31  and  _32
REMARK   13  A    between atoms: _31  and  _34
REMARK   14  A    between atoms: _34  and  _35
REMARK   15  A    between atoms: _38  and  _40
REMARK   16  A    between atoms: _40  and  _41
REMARK   17  A    between atoms: _40  and  _43
REMARK   18  A    between atoms: _43  and  _44
REMARK   19  A    between atoms: _46  and  _48
REMARK   20  A    between atoms: _48  and  _49
REMARK   21  A    between atoms: _48  and  _51
REMARK   22  A    between atoms: _51  and  _52
REMARK   23  A    between atoms: _54  and  _56
REMARK   24  A    between atoms: _56  and  _57
REMARK   25  A    between atoms: _56  and  _59
REMARK   26  A    between atoms: _59  and  _60
REMARK   27  A    between atoms: _60  and  _61
REMARK   28  A    between atoms: _64  and  _66
REMARK   29  A    between atoms: _66  and  _67
REMARK   30  A    between atoms: _66  and  _69
REMARK   31  A    between atoms: _69  and  _70
REMARK   32  A    between atoms: _72  and  _74
REMARK   33  A    between atoms: _74  and  _75
REMARK   34  A    between atoms: _74  and  _77
REMARK   35  A    between atoms: _77  and  _78
REMARK   36  A    between atoms: _81  and  _83
REMARK   37  A    between atoms: _83  and  _84
REMARK   38  A    between atoms: _87  and  _89
REMARK   39  A    between atoms: _89  and  _90
REMARK   40  A    between atoms: _89  and  _92
REMARK   41  A    between atoms: _92  and  _93
REMARK   42  A    between atoms: _93  and  _94
REMARK   43  A    between atoms: _94  and  _95
REMARK   44  A    between atoms: _95  and  _96
REMARK   45  A    between atoms: _100  and  _102
REMARK   46  A    between atoms: _102  and  _103
REMARK   47  A    between atoms: _102  and  _105
REMARK   48  A    between atoms: _105  and  _106
REMARK   49  A    between atoms: _109  and  _111
REMARK   50  A    between atoms: _111  and  _112
REMARK   51  A    between atoms: _111  and  _114
REMARK   52  A    between atoms: _114  and  _115
REMARK   53  A    between atoms: _115  and  _116
REMARK   54  A    between atoms: _118  and  _120
REMARK   55  A    between atoms: _120  and  _121
REMARK   56  A    between atoms: _120  and  _123
REMARK   57  A    between atoms: _123  and  _124
REMARK   58  A    between atoms: _130  and  _132
REMARK   59  A    between atoms: _132  and  _133
REMARK   60  A    between atoms: _136  and  _138
REMARK   61  A    between atoms: _138  and  _139
REMARK   62  A    between atoms: _138  and  _141
REMARK   63  A    between atoms: _141  and  _142
REMARK   64  A    between atoms: _147  and  _149
REMARK   65  A    between atoms: _149  and  _150
REMARK   66  A    between atoms: _149  and  _152
REMARK   67  A    between atoms: _152  and  _153
REMARK   68  A    between atoms: _156  and  _158
REMARK   69  A    between atoms: _158  and  _159
REMARK   70  A    between atoms: _158  and  _161
REMARK   71  A    between atoms: _161  and  _162
REMARK   72  A    between atoms: _162  and  _163
REMARK   73  A    between atoms: _168  and  _170
REMARK   74  A    between atoms: _170  and  _171
REMARK   75  A    between atoms: _170  and  _173
REMARK   76  A    between atoms: _173  and  _174
REMARK   77  A    between atoms: _178  and  _179
REMARK   78  A    between atoms: _184  and  _186
REMARK   79  A    between atoms: _186  and  _187
REMARK   80  A    between atoms: _186  and  _189
REMARK   81  A    between atoms: _189  and  _190
REMARK   82  A    between atoms: _195  and  _196
REMARK   83  A    between atoms: _198  and  _200
REMARK   84  A    between atoms: _200  and  _201
REMARK   85  A    between atoms: _200  and  _203
REMARK   86  A    between atoms: _203  and  _204
REMARK   87  A    between atoms: _207  and  _209
REMARK   88  A    between atoms: _209  and  _210
REMARK   89  A    between atoms: _209  and  _212
REMARK   90  A    between atoms: _212  and  _213
REMARK   91  A    between atoms: _215  and  _217
REMARK   92  A    between atoms: _217  and  _218
REMARK   93  A    between atoms: _217  and  _220
REMARK   94  A    between atoms: _220  and  _221
REMARK   95  A    between atoms: _226  and  _228
REMARK   96  A    between atoms: _228  and  _229
REMARK   97  A    between atoms: _228  and  _231
REMARK   98  A    between atoms: _231  and  _232
REMARK   99  A    between atoms: _235  and  _237
REMARK  100  A    between atoms: _237  and  _238
REMARK  101  A    between atoms: _237  and  _240
REMARK  102  A    between atoms: _240  and  _241
REMARK  103  A    between atoms: _252  and  _253
REMARK  104  A    between atoms: _258  and  _260
REMARK  105  A    between atoms: _260  and  _261
REMARK  106  A    between atoms: _260  and  _263
REMARK  107  A    between atoms: _263  and  _264
REMARK  108  A    between atoms: _267  and  _269
REMARK  109  A    between atoms: _269  and  _270
REMARK  110  A    between atoms: _269  and  _272
REMARK  111  A    between atoms: _272  and  _273
REMARK  112  A    between atoms: _278  and  _280
REMARK  113  A    between atoms: _280  and  _281
REMARK  114  A    between atoms: _283  and  _285
REMARK  115  A    between atoms: _285  and  _286
REMARK  116  A    between atoms: _285  and  _288
REMARK  117  A    between atoms: _288  and  _289
REMARK  118  A    between atoms: _299  and  _301
REMARK  119  A    between atoms: _301  and  _302
REMARK  120  A    between atoms: _301  and  _304
REMARK  121  A    between atoms: _304  and  _305
REMARK  122  A    between atoms: _310  and  _311
REMARK  123  A    between atoms: _313  and  _315
REMARK  124  A    between atoms: _315  and  _316
REMARK  125  A    between atoms: _315  and  _318
REMARK  126  A    between atoms: _318  and  _319
REMARK  127  A    between atoms: _322  and  _324
REMARK  128  A    between atoms: _324  and  _325
REMARK  129  A    between atoms: _324  and  _327
REMARK  130  A    between atoms: _327  and  _328
REMARK  131  A    between atoms: _333  and  _335
REMARK  132  A    between atoms: _335  and  _336
REMARK  133  A    between atoms: _335  and  _338
REMARK  134  A    between atoms: _338  and  _339
REMARK  135  A    between atoms: _344  and  _346
REMARK  136  A    between atoms: _346  and  _347
REMARK  137  A    between atoms: _346  and  _349
REMARK  138  A    between atoms: _349  and  _350
REMARK  139  A    between atoms: _350  and  _351
REMARK  140  A    between atoms: _354  and  _356
REMARK  141  A    between atoms: _356  and  _357
REMARK  142  A    between atoms: _359  and  _361
REMARK  143  A    between atoms: _361  and  _362
REMARK  144  A    between atoms: _361  and  _364
REMARK  145  A    between atoms: _364  and  _365
REMARK  146  A    between atoms: _367  and  _369
REMARK  147  A    between atoms: _369  and  _370
REMARK  148  A    between atoms: _369  and  _372
REMARK  149  A    between atoms: _372  and  _373
REMARK  150  A    between atoms: _378  and  _379
REMARK  151  A    between atoms: _381  and  _383
REMARK  152  A    between atoms: _383  and  _384
REMARK  153  A    between atoms: _383  and  _386
REMARK  154  A    between atoms: _386  and  _387
REMARK  155  A    between atoms: _392  and  _394
REMARK  156  A    between atoms: _394  and  _395
REMARK  157  A    between atoms: _397  and  _399
REMARK  158  A    between atoms: _399  and  _400
REMARK  159  A    between atoms: _399  and  _402
REMARK  160  A    between atoms: _402  and  _403
REMARK  161  A    between atoms: _408  and  _410
REMARK  162  A    between atoms: _410  and  _411
REMARK  163  A    between atoms: _410  and  _413
REMARK  164  A    between atoms: _413  and  _414
REMARK  165  A    between atoms: _424  and  _426
REMARK  166  A    between atoms: _426  and  _427
REMARK  167  A    between atoms: _426  and  _429
REMARK  168  A    between atoms: _429  and  _430
REMARK  169  A    between atoms: _435  and  _437
REMARK  170  A    between atoms: _437  and  _438
REMARK  171  A    between atoms: _437  and  _440
REMARK  172  A    between atoms: _440  and  _441
REMARK  173  A    between atoms: _441  and  _442
REMARK  174  A    between atoms: _442  and  _443
REMARK  175  A    between atoms: _443  and  _444
REMARK  176  A    between atoms: _448  and  _450
REMARK  177  A    between atoms: _450  and  _451
REMARK  178  A    between atoms: _450  and  _453
REMARK  179  A    between atoms: _453  and  _454
REMARK  180  A    between atoms: _460  and  _462
REMARK  181  A    between atoms: _462  and  _463
REMARK  182  A    between atoms: _465  and  _467
REMARK  183  A    between atoms: _467  and  _468
REMARK  184  A    between atoms: _467  and  _470
REMARK  185  A    between atoms: _470  and  _471
REMARK  186  A    between atoms: _473  and  _475
REMARK  187  A    between atoms: _475  and  _476
REMARK  188  A    between atoms: _475  and  _478
REMARK  189  A    between atoms: _478  and  _479
REMARK  190  A    between atoms: _479  and  _480
REMARK  191  A    between atoms: _480  and  _481
REMARK  192  A    between atoms: _481  and  _482
REMARK  193  A    between atoms: _486  and  _488
REMARK  194  A    between atoms: _488  and  _489
REMARK  195  A    between atoms: _488  and  _491
REMARK  196  A    between atoms: _491  and  _492
REMARK  197  A    between atoms: _497  and  _499
REMARK  198  A    between atoms: _499  and  _500
REMARK  199  A    between atoms: _499  and  _502
REMARK  200  A    between atoms: _502  and  _503
REMARK  201  A    between atoms: _503  and  _504
REMARK  202  A    between atoms: _504  and  _505
REMARK  203  A    between atoms: _514  and  _516
REMARK  204  A    between atoms: _516  and  _517
REMARK  205  A    between atoms: _516  and  _519
REMARK  206  A    between atoms: _519  and  _520
REMARK  207  A    between atoms: _520  and  _521
REMARK  208  A    between atoms: _526  and  _528
REMARK  209  A    between atoms: _528  and  _529
REMARK  210  A    between atoms: _528  and  _531
REMARK  211  A    between atoms: _531  and  _532
REMARK  212  A    between atoms: _532  and  _533
REMARK  213  A    between atoms: _538  and  _540
REMARK  214  A    between atoms: _540  and  _541
REMARK  215  A    between atoms: _540  and  _543
REMARK  216  A    between atoms: _543  and  _544
REMARK  217  A    between atoms: _544  and  _545
REMARK  218  A    between atoms: _547  and  _549
REMARK  219  A    between atoms: _549  and  _550
REMARK  220  A    between atoms: _549  and  _552
REMARK  221  A    between atoms: _552  and  _553
REMARK  222  A    between atoms: _555  and  _557
REMARK  223  A    between atoms: _557  and  _558
REMARK  224  A    between atoms: _557  and  _560
REMARK  225  A    between atoms: _560  and  _561
REMARK  226  A    between atoms: _566  and  _567
REMARK  227  A    between atoms: _569  and  _571
REMARK  228  A    between atoms: _571  and  _572
REMARK  229  A    between atoms: _571  and  _574
REMARK  230  A    between atoms: _574  and  _575
REMARK  231  A    between atoms: _585  and  _587
REMARK  232  A    between atoms: _587  and  _588
REMARK  233  A    between atoms: _587  and  _590
REMARK  234  A    between atoms: _590  and  _591
REMARK  235  A    between atoms: _594  and  _596
REMARK  236  A    between atoms: _596  and  _597
REMARK  237  A    between atoms: _600  and  _602
REMARK  238  A    between atoms: _602  and  _603
REMARK  239  A    between atoms: _602  and  _605
REMARK  240  A    between atoms: _605  and  _606
REMARK                            x       y       z     vdW  Elec       q    Type
REMARK                         _______ _______ _______ _____ _____    ______ ____
ROOT
ATOM      1  C   MET A   1     -16.253  13.651  -6.049  0.00  0.00    +0.238 C 
ATOM      2  O   MET A   1     -16.237  12.428  -5.986  0.00  0.00    -0.274 OA
ATOM      3  N   SER A   2     -16.309  14.304  -7.204  0.00  0.00    -0.296 N 
ATOM      4  H   SER A   2     -16.239  15.342  -7.199  0.00  0.00    +0.150 HD
ENDROOT
BRANCH   1   5
ATOM      5  CA  MET A   1     -16.149  14.492  -4.781  0.00  0.00    +0.146 C 
BRANCH   5   6
ATOM      6  N   MET A   1     -16.631  15.862  -4.988  0.00  0.00    -0.238 NA
ATOM      7  H   MET A   1     -17.648  16.015  -5.143  0.00  0.00    +0.142 HD
ENDBRANCH   5   6
BRANCH   5   8
ATOM      8  CB  MET A   1     -16.946  13.833  -3.655  0.00  0.00    +0.038 C 
BRANCH   8   9
ATOM      9  CG  MET A   1     -16.447  14.208  -2.291  0.00  0.00    +0.060 C 
BRANCH   9  10
ATOM     10  SD  MET A   1     -17.359  13.452  -0.932  0.00  0.00    -0.139 S 
ATOM     11  CE  MET A   1     -17.186  11.713  -1.338  0.00  0.00    +0.069 C 
ENDBRANCH   9  10
ENDBRANCH   8   9
ENDBRANCH   5   8
ENDBRANCH   1   5
BRANCH   3  12
ATOM     12  CA  SER A   2     -16.467  13.608  -8.490  0.00  0.00    +0.166 C 
BRANCH  12  13
ATOM     13  CB  SER A   2     -15.503  12.451  -8.660  0.00  0.00    +0.229 C 
ATOM     14  OG  SER A   2     -15.893  11.363  -9.109  0.00  0.00    -0.286 OA
ENDBRANCH  12  13
BRANCH  12  15
ATOM     15  C   SER A   2     -16.282  14.583  -9.663  0.00  0.00    +0.165 C 
BRANCH  15  16
ATOM     16  O   SER A   2     -14.980  15.156  -9.674  0.00  0.00    -0.380 OA
ATOM     17  H   SER A   2     -14.305  14.437  -9.758  0.00  0.00    +0.211 HD
ENDBRANCH  15  16
ENDBRANCH  12  15
ENDBRANCH   3  12
TORSDOF 9
REMARK  Name = ../refined-set-2016/4ua8/4ua8_pocket.pdb
REMARK  240 active torsions:
REMARK  status: ('A' for Active; 'I' for Inactive)
REMARK    1  A    between atoms: _1  and  _3
REMARK    2  A    between atoms: _3  and  _4
REMARK    3  A    between atoms: _7  and  _8
REMARK    4  A    between atoms: _13  and  _15
REMARK    5  A    between atoms: _15  and  _16
REMARK    6  A    between atoms: _19  and  _21
REMARK    7  A    between atoms: _21  and  _22
REMARK    8  A    between atoms: _21  and  _24
REMARK    9  A    between atoms: _24  and  _25
REMARK   10  A    between atoms: _25  and  _26
REMARK   11  A    between atoms: _29  and  _31
REMARK   12  A    between atoms: _31  and  _32
REMARK   13  A    between atoms: _31  and  _34
REMARK   14  A    between atoms: _34  and  _35
REMARK   15  A    between atoms: _38  and  _40
REMARK   16  A    between atoms: _40  and  _41
REMARK   17  A    between atoms: _40  and  _43
REMARK   18  A    between atoms: _43  and  _44
REMARK   19  A    between atoms: _46  and  _48
REMARK   20  A    between atoms: _48  and  _49
REMARK   21  A    between atoms: _48  and  _51
REMARK   22  A    between atoms: _51  and  _52
REMARK   23  A    between atoms: _54  and  _56
REMARK   24  A    between atoms: _56  and  _57
REMARK   25  A    between atoms: _56  and  _59
REMARK   26  A    between atoms: _59  and  _60
REMARK   27  A    between atoms: _60  and  _61
REMARK   28  A    between atoms: _64  and  _66
REMARK   29  A    between atoms: _66  and  _67
REMARK   30  A    between atoms: _66  and  _69
REMARK   31  A    between atoms: _69  and  _70
REMARK   32  A    between atoms: _72  and  _74
REMARK   33  A    between atoms: _74  and  _75
REMARK   34  A    between atoms: _74  and  _77
REMARK   35  A    between atoms: _77  and  _78
REMARK   36  A    between atoms: _81  and  _83
REMARK   37  A    between atoms: _83  and  _84
REMARK   38  A    between atoms: _87  and  _89
REMARK   39  A    between atoms: _89  and  _90
REMARK   40  A    between atoms: _89  and  _92
REMARK   41  A    between atoms: _92  and  _93
REMARK   42  A    between atoms: _93  and  _94
REMARK   43  A    between atoms: _94  and  _95
REMARK   44  A    between atoms: _95  and  _96
REMARK   45  A    between atoms: _100  and  _102
REMARK   46  A    between atoms: _102  and  _103
REMARK   47  A    between atoms: _102  and  _105
REMARK   48  A    between atoms: _105  and  _106
REMARK   49  A    between atoms: _109  and  _111
REMARK   50  A    between atoms: _111  and  _112
REMARK   51  A    between atoms: _111  and  _114
REMARK   52  A    between atoms: _114  and  _115
REMARK   53  A    between atoms: _115  and  _116
REMARK   54  A    between atoms: _118  and  _120
REMARK   55  A    between atoms: _120  and  _121
REMARK   56  A    between atoms: _120  and  _123
REMARK   57  A    between atoms: _123  and  _124
REMARK   58  A    between atoms: _130  and  _132
REMARK   59  A    between atoms: _132  and  _133
REMARK   60  A    between atoms: _136  and  _138
REMARK   61  A    between atoms: _138  and  _139
REMARK   62  A    between atoms: _138  and  _141
REMARK   63  A    between atoms: _141  and  _142
REMARK   64  A    between atoms: _147  and  _149
REMARK   65  A    between atoms: _149  and  _150
REMARK   66  A    between atoms: _149  and  _152
REMARK   67  A    between atoms: _152  and  _153
REMARK   68  A    between atoms: _156  and  _158
REMARK   69  A    between atoms: _158  and  _159
REMARK   70  A    between atoms: _158  and  _161
REMARK   71  A    between atoms: _161  and  _162
REMARK   72  A    between atoms: _162  and  _163
REMARK   73  A    between atoms: _168  and  _170
REMARK   74  A    between atoms: _170  and  _171
REMARK   75  A    between atoms: _170  and  _173
REMARK   76  A    between atoms: _173  and  _174
REMARK   77  A    between atoms: _178  and  _179
REMARK   78  A    between atoms: _184  and  _186
REMARK   79  A    between atoms: _186  and  _187
REMARK   80  A    between atoms: _186  and  _189
REMARK   81  A    between atoms: _189  and  _190
REMARK   82  A    between atoms: _195  and  _196
REMARK   83  A    between atoms: _198  and  _200
REMARK   84  A    between atoms: _200  and  _201
REMARK   85  A    between atoms: _200  and  _203
REMARK   86  A    between atoms: _203  and  _204
REMARK   87  A    between atoms: _207  and  _209
REMARK   88  A    between atoms: _209  and  _210
REMARK   89  A    between atoms: _209  and  _212
REMARK   90  A    between atoms: _212  and  _213
REMARK   91  A    between atoms: _215  and  _217
REMARK   92  A    between atoms: _217  and  _218
REMARK   93  A    between atoms: _217  and  _220
REMARK   94  A    between atoms: _220  and  _221
REMARK   95  A    between atoms: _226  and  _228
REMARK   96  A    between atoms: _228  and  _229
REMARK   97  A    between atoms: _228  and  _231
REMARK   98  A    between atoms: _231  and  _232
REMARK   99  A    between atoms: _235  and  _237
REMARK  100  A    between atoms: _237  and  _238
REMARK  101  A    between atoms: _237  and  _240
REMARK  102  A    between atoms: _240  and  _241
REMARK  103  A    between atoms: _252  and  _253
REMARK  104  A    between atoms: _258  and  _260
REMARK  105  A    between atoms: _260  and  _261
REMARK  106  A    between atoms: _260  and  _263
REMARK  107  A    between atoms: _263  and  _264
REMARK  108  A    between atoms: _267  and  _269
REMARK  109  A    between atoms: _269  and  _270
REMARK  110  A    between atoms: _269  and  _272
REMARK  111  A    between atoms: _272  and  _273
REMARK  112  A    between atoms: _278  and  _280
REMARK  113  A    between atoms: _280  and  _281
REMARK  114  A    between atoms: _283  and  _285
REMARK  115  A    between atoms: _285  and  _286
REMARK  116  A    between atoms: _285  and  _288
REMARK  117  A    between atoms: _288  and  _289
REMARK  118  A    between atoms: _299  and  _301
REMARK  119  A    between atoms: _301  and  _302
REMARK  120  A    between atoms: _301  and  _304
REMARK  121  A    between atoms: _304  and  _305
REMARK  122  A    between atoms: _310  and  _311
REMARK  123  A    between atoms: _313  and  _315
REMARK  124  A    between atoms: _315  and  _316
REMARK  125  A    between atoms: _315  and  _318
REMARK  126  A    between atoms: _318  and  _319
REMARK  127  A    between atoms: _322  and  _324
REMARK  128  A    between atoms: _324  and  _325
REMARK  129  A    between atoms: _324  and  _327
REMARK  130  A    between atoms: _327  and  _328
REMARK  131  A    between atoms: _333  and  _335
REMARK  132  A    between atoms: _335  and  _336
REMARK  133  A    between atoms: _335  and  _338
REMARK  134  A    between atoms: _338  and  _339
REMARK  135  A    between atoms: _344  and  _346
REMARK  136  A    between atoms: _346  and  _347
REMARK  137  A    between atoms: _346  and  _349
REMARK  138  A    between atoms: _349  and  _350
REMARK  139  A    between atoms: _350  and  _351
REMARK  140  A    between atoms: _354  and  _356
REMARK  141  A    between atoms: _356  and  _357
REMARK  142  A    between atoms: _359  and  _361
REMARK  143  A    between atoms: _361  and  _362
REMARK  144  A    between atoms: _361  and  _364
REMARK  145  A    between atoms: _364  and  _365
REMARK  146  A    between atoms: _367  and  _369
REMARK  147  A    between atoms: _369  and  _370
REMARK  148  A    between atoms: _369  and  _372
REMARK  149  A    between atoms: _372  and  _373
REMARK  150  A    between atoms: _378  and  _379
REMARK  151  A    between atoms: _381  and  _383
REMARK  152  A    between atoms: _383  and  _384
REMARK  153  A    between atoms: _383  and  _386
REMARK  154  A    between atoms: _386  and  _387
REMARK  155  A    between atoms: _392  and  _394
REMARK  156  A    between atoms: _394  and  _395
REMARK  157  A    between atoms: _397  and  _399
REMARK  158  A    between atoms: _399  and  _400
REMARK  159  A    between atoms: _399  and  _402
REMARK  160  A    between atoms: _402  and  _403
REMARK  161  A    between atoms: _408  and  _410
REMARK  162  A    between atoms: _410  and  _411
REMARK  163  A    between atoms: _410  and  _413
REMARK  164  A    between atoms: _413  and  _414
REMARK  165  A    between atoms: _424  and  _426
REMARK  166  A    between atoms: _426  and  _427
REMARK  167  A    between atoms: _426  and  _429
REMARK  168  A    between atoms: _429  and  _430
REMARK  169  A    between atoms: _435  and  _437
REMARK  170  A    between atoms: _437  and  _438
REMARK  171  A    between atoms: _437  and  _440
REMARK  172  A    between atoms: _440  and  _441
REMARK  173  A    between atoms: _441  and  _442
REMARK  174  A    between atoms: _442  and  _443
REMARK  175  A    between atoms: _443  and  _444
REMARK  176  A    between atoms: _448  and  _450
REMARK  177  A    between atoms: _450  and  _451
REMARK  178  A    between atoms: _450  and  _453
REMARK  179  A    between atoms: _453  and  _454
REMARK  180  A    between atoms: _460  and  _462
REMARK  181  A    between atoms: _462  and  _463
REMARK  182  A    between atoms: _465  and  _467
REMARK  183  A    between atoms: _467  and  _468
REMARK  184  A    between atoms: _467  and  _470
REMARK  185  A    between atoms: _470  and  _471
REMARK  186  A    between atoms: _473  and  _475
REMARK  187  A    between atoms: _475  and  _476
REMARK  188  A    between atoms: _475  and  _478
REMARK  189  A    between atoms: _478  and  _479
REMARK  190  A    between atoms: _479  and  _480
REMARK  191  A    between atoms: _480  and  _481
REMARK  192  A    between atoms: _481  and  _482
REMARK  193  A    between atoms: _486  and  _488
REMARK  194  A    between atoms: _488  and  _489
REMARK  195  A    between atoms: _488  and  _491
REMARK  196  A    between atoms: _491  and  _492
REMARK  197  A    between atoms: _497  and  _499
REMARK  198  A    between atoms: _499  and  _500
REMARK  199  A    between atoms: _499  and  _502
REMARK  200  A    between atoms: _502  and  _503
REMARK  201  A    between atoms: _503  and  _504
REMARK  202  A    between atoms: _504  and  _505
REMARK  203  A    between atoms: _514  and  _516
REMARK  204  A    between atoms: _516  and  _517
REMARK  205  A    between atoms: _516  and  _519
REMARK  206  A    between atoms: _519  and  _520
REMARK  207  A    between atoms: _520  and  _521
REMARK  208  A    between atoms: _526  and  _528
REMARK  209  A    between atoms: _528  and  _529
REMARK  210  A    between atoms: _528  and  _531
REMARK  211  A    between atoms: _531  and  _532
REMARK  212  A    between atoms: _532  and  _533
REMARK  213  A    between atoms: _538  and  _540
REMARK  214  A    between atoms: _540  and  _541
REMARK  215  A    between atoms: _540  and  _543
REMARK  216  A    between atoms: _543  and  _544
REMARK  217  A    between atoms: _544  and  _545
REMARK  218  A    between atoms: _547  and  _549
REMARK  219  A    between atoms: _549  and  _550
REMARK  220  A    between atoms: _549  and  _552
REMARK  221  A    between atoms: _552  and  _553
REMARK  222  A    between atoms: _555  and  _557
REMARK  223  A    between atoms: _557  and  _558
REMARK  224  A    between atoms: _557  and  _560
REMARK  225  A    between atoms: _560  and  _561
REMARK  226  A    between atoms: _566  and  _567
REMARK  227  A    between atoms: _569  and  _571
REMARK  228  A    between atoms: _571  and  _572
REMARK  229  A    between atoms: _571  and  _574
REMARK  230  A    between atoms: _574  and  _575
REMARK  231  A    between atoms: _585  and  _587
REMARK  232  A    between atoms: _587  and  _588
REMARK  233  A    between atoms: _587  and  _590
REMARK  234  A    between atoms: _590  and  _591
REMARK  235  A    between atoms: _594  and  _596
REMARK  236  A    between atoms: _596  and  _597
REMARK  237  A    between atoms: _600  and  _602
REMARK  238  A    between atoms: _602  and  _603
REMARK  239  A    between atoms: _602  and  _605
REMARK  240  A    between atoms: _605  and  _606
REMARK                            x       y       z     vdW  Elec       q    Type
REMARK                         _______ _______ _______ _____ _____    ______ ____
ROOT
ATOM      1  CA  TRP A   2     -17.832   8.747  -6.972  0.00  0.00    +0.153 C 
ENDROOT
BRANCH   1   4
ATOM      2  C   TYR A   1     -15.619   8.790  -6.089  0.00  0.00    +0.239 C 
ATOM      3  O   TYR A   1     -15.602   7.559  -6.137  0.00  0.00    -0.274 OA
ATOM      4  N   TRP A   2     -16.687   9.473  -6.463  0.00  0.00    -0.297 N 
ATOM      5  H   TRP A   2     -16.705  10.511  -6.393  0.00  0.00    +0.150 HD
BRANCH   2   6
ATOM      6  CA  TYR A   1     -14.409   9.560  -5.571  0.00  0.00    +0.149 C 
BRANCH   6   7
ATOM      7  N   TYR A   1     -14.045  10.663  -6.467  0.00  0.00    -0.238 NA
ATOM      8  H   TYR A   1     -14.221  11.645  -6.173  0.00  0.00    +0.142 HD
ENDBRANCH   6   7
BRANCH   6   9
ATOM      9  CB  TYR A   1     -14.638  10.096  -4.142  0.00  0.00    +0.053 C 
BRANCH   9  10
ATOM     10  CG  TYR A   1     -15.172   9.060  -3.219  0.00  0.00    -0.020 A 
ATOM     11  CD2 TYR A   1     -14.341   8.247  -2.476  0.00  0.00    -0.001 A 
ATOM     12  CE2 TYR A   1     -14.891   7.223  -1.671  0.00  0.00    +0.036 A 
ATOM     13  CZ  TYR A   1     -16.268   7.099  -1.636  0.00  0.00    +0.134 A 
ATOM     14  CE1 TYR A   1     -17.069   7.920  -2.355  0.00  0.00    +0.036 A 
ATOM     15  CD1 TYR A   1     -16.528   8.865  -3.143  0.00  0.00    -0.001 A 
BRANCH  13  16
ATOM     16  OH  TYR A   1     -16.885   6.128  -0.875  0.00  0.00    -0.506 OA
ATOM     17  HH  TYR A   1     -17.867   6.201  -0.982  0.00  0.00    +0.292 HD
ENDBRANCH  13  16
ENDBRANCH   9  10
ENDBRANCH   6   9
ENDBRANCH   2   6
ENDBRANCH   1   4
BRANCH   1  18
ATOM     18  C   TRP A   2     -17.404   7.898  -8.165  0.00  0.00    +0.241 C 
ATOM     19  O   TRP A   2     -17.829   6.760  -8.308  0.00  0.00    -0.273 OA
ATOM     20  N   ASP A   3     -16.550   8.453  -9.022  0.00  0.00    -0.298 N 
ATOM     21  H   ASP A   3     -16.185   9.409  -8.837  0.00  0.00    +0.150 HD
BRANCH  20  22
ATOM     22  CA  ASP A   3     -16.119   7.733 -10.221  0.00  0.00    +0.148 C 
BRANCH  22  23
ATOM     23  C   ASP A   3     -15.260   6.528  -9.874  0.00  0.00    +0.227 C 
ATOM     24  O   ASP A   3     -15.427   5.451 -10.456  0.00  0.00    -0.286 OA
ENDBRANCH  22  23
BRANCH  22  25
ATOM     25  CB  ASP A   3     -15.327   8.652 -11.161  0.00  0.00    +0.142 C 
BRANCH  25  26
ATOM     26  CG  ASP A   3     -16.172   9.721 -11.840  0.00  0.00    +0.367 C 
ATOM     27  OD2 ASP A   3     -17.420   9.687 -11.770  0.00  0.00    -0.246 OA
ATOM     28  OD1 ASP A   3     -15.528  10.595 -12.463  0.00  0.00    -0.246 OA
ENDBRANCH  25  26
ENDBRANCH  22  25
ENDBRANCH  20  22
ENDBRANCH   1  18
BRANCH   1  29
ATOM     29  CB  TRP A   2     -18.971   9.673  -7.398  0.00  0.00    +0.057 C 
BRANCH  29  30
ATOM     30  CG  TRP A   2     -19.411  10.741  -6.437  0.00  0.00    -0.002 A 
ATOM     31  CD2 TRP A   2     -19.821  10.585  -5.066  0.00  0.00    +0.013 A 
ATOM     32  CE3 TRP A   2     -19.912   9.504  -4.198  0.00  0.00    +0.001 A 
ATOM     33  CZ3 TRP A   2     -20.329   9.736  -2.904  0.00  0.00    +0.000 A 
ATOM     34  CH2 TRP A   2     -20.661  11.034  -2.458  0.00  0.00    +0.001 A 
ATOM     35  CZ2 TRP A   2     -20.586  12.108  -3.288  0.00  0.00    +0.017 A 
ATOM     36  CE2 TRP A   2     -20.166  11.876  -4.591  0.00  0.00    +0.056 A 
ATOM     37  NE1 TRP A   2     -19.960  12.762  -5.615  0.00  0.00    -0.352 N 
ATOM     38  HE1 TRP A   2     -20.095  13.792  -5.562  0.00  0.00    +0.166 HD
ATOM     39  CD1 TRP A   2     -19.545  12.062  -6.726  0.00  0.00    +0.068 A 
ENDBRANCH  29  30
ENDBRANCH   1  29
TORSDOF 13
REMARK  Name = ../refined-set-2016/4ua8/4ua8_pocket.pdb
REMARK  240 active torsions:
REMARK  status: ('A' for Active; 'I' for Inactive)
REMARK    1  A    between atoms: _1  and  _3
REMARK    2  A    between atoms: _3  and  _4
REMARK    3  A    between atoms: _7  and  _8
REMARK    4  A    between atoms: _13  and  _15
REMARK    5  A    between atoms: _15  and  _16
REMARK    6  A    between atoms: _19  and  _21
REMARK    7  A    between atoms: _21  and  _22
REMARK    8  A    between atoms: _21  and  _24
REMARK    9  A    between atoms: _24  and  _25
REMARK   10  A    between atoms: _25  and  _26
REMARK   11  A    between atoms: _29  and  _31
REMARK   12  A    between atoms: _31  and  _32
REMARK   13  A    between atoms: _31  and  _34
REMARK   14  A    between atoms: _34  and  _35
REMARK   15  A    between atoms: _38  and  _40
REMARK   16  A    between atoms: _40  and  _41
REMARK   17  A    between atoms: _40  and  _43
REMARK   18  A    between atoms: _43  and  _44
REMARK   19  A    between atoms: _46  and  _48
REMARK   20  A    between atoms: _48  and  _49
REMARK   21  A    between atoms: _48  and  _51
REMARK   22  A    between atoms: _51  and  _52
REMARK   23  A    between atoms: _54  and  _56
REMARK   24  A    between atoms: _56  and  _57
REMARK   25  A    between atoms: _56  and  _59
REMARK   26  A    between atoms: _59  and  _60
REMARK   27  A    between atoms: _60  and  _61
REMARK   28  A    between atoms: _64  and  _66
REMARK   29  A    between atoms: _66  and  _67
REMARK   30  A    between atoms: _66  and  _69
REMARK   31  A    between atoms: _69  and  _70
REMARK   32  A    between atoms: _72  and  _74
REMARK   33  A    between atoms: _74  and  _75
REMARK   34  A    between atoms: _74  and  _77
REMARK   35  A    between atoms: _77  and  _78
REMARK   36  A    between atoms: _81  and  _83
REMARK   37  A    between atoms: _83  and  _84
REMARK   38  A    between atoms: _87  and  _89
REMARK   39  A    between atoms: _89  and  _90
REMARK   40  A    between atoms: _89  and  _92
REMARK   41  A    between atoms: _92  and  _93
REMARK   42  A    between atoms: _93  and  _94
REMARK   43  A    between atoms: _94  and  _95
REMARK   44  A    between atoms: _95  and  _96
REMARK   45  A    between atoms: _100  and  _102
REMARK   46  A    between atoms: _102  and  _103
REMARK   47  A    between atoms: _102  and  _105
REMARK   48  A    between atoms: _105  and  _106
REMARK   49  A    between atoms: _109  and  _111
REMARK   50  A    between atoms: _111  and  _112
REMARK   51  A    between atoms: _111  and  _114
REMARK   52  A    between atoms: _114  and  _115
REMARK   53  A    between atoms: _115  and  _116
REMARK   54  A    between atoms: _118  and  _120
REMARK   55  A    between atoms: _120  and  _121
REMARK   56  A    between atoms: _120  and  _123
REMARK   57  A    between atoms: _123  and  _124
REMARK   58  A    between atoms: _130  and  _132
REMARK   59  A    between atoms: _132  and  _133
REMARK   60  A    between atoms: _136  and  _138
REMARK   61  A    between atoms: _138  and  _139
REMARK   62  A    between atoms: _138  and  _141
REMARK   63  A    between atoms: _141  and  _142
REMARK   64  A    between atoms: _147  and  _149
REMARK   65  A    between atoms: _149  and  _150
REMARK   66  A    between atoms: _149  and  _152
REMARK   67  A    between atoms: _152  and  _153
REMARK   68  A    between atoms: _156  and  _158
REMARK   69  A    between atoms: _158  and  _159
REMARK   70  A    between atoms: _158  and  _161
REMARK   71  A    between atoms: _161  and  _162
REMARK   72  A    between atoms: _162  and  _163
REMARK   73  A    between atoms: _168  and  _170
REMARK   74  A    between atoms: _170  and  _171
REMARK   75  A    between atoms: _170  and  _173
REMARK   76  A    between atoms: _173  and  _174
REMARK   77  A    between atoms: _178  and  _179
REMARK   78  A    between atoms: _184  and  _186
REMARK   79  A    between atoms: _186  and  _187
REMARK   80  A    between atoms: _186  and  _189
REMARK   81  A    between atoms: _189  and  _190
REMARK   82  A    between atoms: _195  and  _196
REMARK   83  A    between atoms: _198  and  _200
REMARK   84  A    between atoms: _200  and  _201
REMARK   85  A    between atoms: _200  and  _203
REMARK   86  A    between atoms: _203  and  _204
REMARK   87  A    between atoms: _207  and  _209
REMARK   88  A    between atoms: _209  and  _210
REMARK   89  A    between atoms: _209  and  _212
REMARK   90  A    between atoms: _212  and  _213
REMARK   91  A    between atoms: _215  and  _217
REMARK   92  A    between atoms: _217  and  _218
REMARK   93  A    between atoms: _217  and  _220
REMARK   94  A    between atoms: _220  and  _221
REMARK   95  A    between atoms: _226  and  _228
REMARK   96  A    between atoms: _228  and  _229
REMARK   97  A    between atoms: _228  and  _231
REMARK   98  A    between atoms: _231  and  _232
REMARK   99  A    between atoms: _235  and  _237
REMARK  100  A    between atoms: _237  and  _238
REMARK  101  A    between atoms: _237  and  _240
REMARK  102  A    between atoms: _240  and  _241
REMARK  103  A    between atoms: _252  and  _253
REMARK  104  A    between atoms: _258  and  _260
REMARK  105  A    between atoms: _260  and  _261
REMARK  106  A    between atoms: _260  and  _263
REMARK  107  A    between atoms: _263  and  _264
REMARK  108  A    between atoms: _267  and  _269
REMARK  109  A    between atoms: _269  and  _270
REMARK  110  A    between atoms: _269  and  _272
REMARK  111  A    between atoms: _272  and  _273
REMARK  112  A    between atoms: _278  and  _280
REMARK  113  A    between atoms: _280  and  _281
REMARK  114  A    between atoms: _283  and  _285
REMARK  115  A    between atoms: _285  and  _286
REMARK  116  A    between atoms: _285  and  _288
REMARK  117  A    between atoms: _288  and  _289
REMARK  118  A    between atoms: _299  and  _301
REMARK  119  A    between atoms: _301  and  _302
REMARK  120  A    between atoms: _301  and  _304
REMARK  121  A    between atoms: _304  and  _305
REMARK  122  A    between atoms: _310  and  _311
REMARK  123  A    between atoms: _313  and  _315
REMARK  124  A    between atoms: _315  and  _316
REMARK  125  A    between atoms: _315  and  _318
REMARK  126  A    between atoms: _318  and  _319
REMARK  127  A    between atoms: _322  and  _324
REMARK  128  A    between atoms: _324  and  _325
REMARK  129  A    between atoms: _324  and  _327
REMARK  130  A    between atoms: _327  and  _328
REMARK  131  A    between atoms: _333  and  _335
REMARK  132  A    between atoms: _335  and  _336
REMARK  133  A    between atoms: _335  and  _338
REMARK  134  A    between atoms: _338  and  _339
REMARK  135  A    between atoms: _344  and  _346
REMARK  136  A    between atoms: _346  and  _347
REMARK  137  A    between atoms: _346  and  _349
REMARK  138  A    between atoms: _349  and  _350
REMARK  139  A    between atoms: _350  and  _351
REMARK  140  A    between atoms: _354  and  _356
REMARK  141  A    between atoms: _356  and  _357
REMARK  142  A    between atoms: _359  and  _361
REMARK  143  A    between atoms: _361  and  _362
REMARK  144  A    between atoms: _361  and  _364
REMARK  145  A    between atoms: _364  and  _365
REMARK  146  A    between atoms: _367  and  _369
REMARK  147  A    between atoms: _369  and  _370
REMARK  148  A    between atoms: _369  and  _372
REMARK  149  A    between atoms: _372  and  _373
REMARK  150  A    between atoms: _378  and  _379
REMARK  151  A    between atoms: _381  and  _383
REMARK  152  A    between atoms: _383  and  _384
REMARK  153  A    between atoms: _383  and  _386
REMARK  154  A    between atoms: _386  and  _387
REMARK  155  A    between atoms: _392  and  _394
REMARK  156  A    between atoms: _394  and  _395
REMARK  157  A    between atoms: _397  and  _399
REMARK  158  A    between atoms: _399  and  _400
REMARK  159  A    between atoms: _399  and  _402
REMARK  160  A    between atoms: _402  and  _403
REMARK  161  A    between atoms: _408  and  _410
REMARK  162  A    between atoms: _410  and  _411
REMARK  163  A    between atoms: _410  and  _413
REMARK  164  A    between atoms: _413  and  _414
REMARK  165  A    between atoms: _424  and  _426
REMARK  166  A    between atoms: _426  and  _427
REMARK  167  A    between atoms: _426  and  _429
REMARK  168  A    between atoms: _429  and  _430
REMARK  169  A    between atoms: _435  and  _437
REMARK  170  A    between atoms: _437  and  _438
REMARK  171  A    between atoms: _437  and  _440
REMARK  172  A    between atoms: _440  and  _441
REMARK  173  A    between atoms: _441  and  _442
REMARK  174  A    between atoms: _442  and  _443
REMARK  175  A    between atoms: _443  and  _444
REMARK  176  A    between atoms: _448  and  _450
REMARK  177  A    between atoms: _450  and  _451
REMARK  178  A    between atoms: _450  and  _453
REMARK  179  A    between atoms: _453  and  _454
REMARK  180  A    between atoms: _460  and  _462
REMARK  181  A    between atoms: _462  and  _463
REMARK  182  A    between atoms: _465  and  _467
REMARK  183  A    between atoms: _467  and  _468
REMARK  184  A    between atoms: _467  and  _470
REMARK  185  A    between atoms: _470  and  _471
REMARK  186  A    between atoms: _473  and  _475
REMARK  187  A    between atoms: _475  and  _476
REMARK  188  A    between atoms: _475  and  _478
REMARK  189  A    between atoms: _478  and  _479
REMARK  190  A    between atoms: _479  and  _480
REMARK  191  A    between atoms: _480  and  _481
REMARK  192  A    between atoms: _481  and  _482
REMARK  193  A    between atoms: _486  and  _488
REMARK  194  A    between atoms: _488  and  _489
REMARK  195  A    between atoms: _488  and  _491
REMARK  196  A    between atoms: _491  and  _492
REMARK  197  A    between atoms: _497  and  _499
REMARK  198  A    between atoms: _499  and  _500
REMARK  199  A    between atoms: _499  and  _502
REMARK  200  A    between atoms: _502  and  _503
REMARK  201  A    between atoms: _503  and  _504
REMARK  202  A    between atoms: _504  and  _505
REMARK  203  A    between atoms: _514  and  _516
REMARK  204  A    between atoms: _516  and  _517
REMARK  205  A    between atoms: _516  and  _519
REMARK  206  A    between atoms: _519  and  _520
REMARK  207  A    between atoms: _520  and  _521
REMARK  208  A    between atoms: _526  and  _528
REMARK  209  A    between atoms: _528  and  _529
REMARK  210  A    between atoms: _528  and  _531
REMARK  211  A    between atoms: _531  and  _532
REMARK  212  A    between atoms: _532  and  _533
REMARK  213  A    between atoms: _538  and  _540
REMARK  214  A    between atoms: _540  and  _541
REMARK  215  A    between atoms: _540  and  _543
REMARK  216  A    between atoms: _543  and  _544
REMARK  217  A    between atoms: _544  and  _545
REMARK  218  A    between atoms: _547  and  _549
REMARK  219  A    between atoms: _549  and  _550
REMARK  220  A    between atoms: _549  and  _552
REMARK  221  A    between atoms: _552  and  _553
REMARK  222  A    between atoms: _555  and  _557
REMARK  223  A    between atoms: _557  and  _558
REMARK  224  A    between atoms: _557  and  _560
REMARK  225  A    between atoms: _560  and  _561
REMARK  226  A    between atoms: _566  and  _567
REMARK  227  A    between atoms: _569  and  _571
REMARK  228  A    between atoms: _571  and  _572
REMARK  229  A    between atoms: _571  and  _574
REMARK  230  A    between atoms: _574  and  _575
REMARK  231  A    between atoms: _585  and  _587
REMARK  232  A    between atoms: _587  and  _588
REMARK  233  A    between atoms: _587  and  _590
REMARK  234  A    between atoms: _590  and  _591
REMARK  235  A    between atoms: _594  and  _596
REMARK  236  A    between atoms: _596  and  _597
REMARK  237  A    between atoms: _600  and  _602
REMARK  238  A    between atoms: _602  and  _603
REMARK  239  A    between atoms: _602  and  _605
REMARK  240  A    between atoms: _605  and  _606
REMARK                            x       y       z     vdW  Elec       q    Type
REMARK                         _______ _______ _______ _____ _____    ______ ____
ROOT
ATOM      1  C   ALA A   1     -16.268   2.790  -6.748  0.00  0.00    +0.238 C 
ATOM      2  O   ALA A   1     -16.302   1.681  -6.226  0.00  0.00    -0.274 OA
ATOM      3  N   THR A   2     -16.861   3.047  -7.905  0.00  0.00    -0.296 N 
ATOM      4  H   THR A   2     -16.732   3.972  -8.362  0.00  0.00    +0.150 HD
ENDROOT
BRANCH   1   5
ATOM      5  CA  ALA A   1     -15.581   3.954  -6.071  0.00  0.00    +0.145 C 
ATOM      6  CB  ALA A   1     -16.568   4.694  -5.163  0.00  0.00    +0.028 C 
BRANCH   5   7
ATOM      7  N   ALA A   1     -15.006   4.881  -7.020  0.00  0.00    -0.238 NA
ATOM      8  H   ALA A   1     -15.366   5.856  -7.067  0.00  0.00    +0.142 HD
ENDBRANCH   5   7
ENDBRANCH   1   5
BRANCH   3   9
ATOM      9  CA  THR A   2     -17.692   2.034  -8.534  0.00  0.00    +0.164 C 
BRANCH   9  10
ATOM     10  C   THR A   2     -16.842   0.849  -9.055  0.00  0.00    +0.229 C 
ATOM     11  O   THR A   2     -17.129  -0.289  -8.688  0.00  0.00    -0.286 OA
ENDBRANCH   9  10
BRANCH   9  12
ATOM     12  CB  THR A   2     -18.562   2.672  -9.643  0.00  0.00    +0.136 C 
ATOM     13  CG2 THR A   2     -19.437   1.637 -10.317  0.00  0.00    +0.034 C 
BRANCH  12  14
ATOM     14  OG1 THR A   2     -19.415   3.661  -9.030  0.00  0.00    -0.382 OA
ATOM     15  HG1 THR A   2     -19.981   4.082  -9.724  0.00  0.00    +0.210 HD
ENDBRANCH  12  14
ENDBRANCH   9  12
ENDBRANCH   3   9
TORSDOF 6
REMARK  Name = ../refined-set-2016/4ua8/4ua8_pocket.pdb
REMARK  240 active torsions:
REMARK  status: ('A' for Active; 'I' for Inactive)
REMARK    1  A    between atoms: _1  and  _3
REMARK    2  A    between atoms: _3  and  _4
REMARK    3  A    between atoms: _7  and  _8
REMARK    4  A    between atoms: _13  and  _15
REMARK    5  A    between atoms: _15  and  _16
REMARK    6  A    between atoms: _19  and  _21
REMARK    7  A    between atoms: _21  and  _22
REMARK    8  A    between atoms: _21  and  _24
REMARK    9  A    between atoms: _24  and  _25
REMARK   10  A    between atoms: _25  and  _26
REMARK   11  A    between atoms: _29  and  _31
REMARK   12  A    between atoms: _31  and  _32
REMARK   13  A    between atoms: _31  and  _34
REMARK   14  A    between atoms: _34  and  _35
REMARK   15  A    between atoms: _38  and  _40
REMARK   16  A    between atoms: _40  and  _41
REMARK   17  A    between atoms: _40  and  _43
REMARK   18  A    between atoms: _43  and  _44
REMARK   19  A    between atoms: _46  and  _48
REMARK   20  A    between atoms: _48  and  _49
REMARK   21  A    between atoms: _48  and  _51
REMARK   22  A    between atoms: _51  and  _52
REMARK   23  A    between atoms: _54  and  _56
REMARK   24  A    between atoms: _56  and  _57
REMARK   25  A    between atoms: _56  and  _59
REMARK   26  A    between atoms: _59  and  _60
REMARK   27  A    between atoms: _60  and  _61
REMARK   28  A    between atoms: _64  and  _66
REMARK   29  A    between atoms: _66  and  _67
REMARK   30  A    between atoms: _66  and  _69
REMARK   31  A    between atoms: _69  and  _70
REMARK   32  A    between atoms: _72  and  _74
REMARK   33  A    between atoms: _74  and  _75
REMARK   34  A    between atoms: _74  and  _77
REMARK   35  A    between atoms: _77  and  _78
REMARK   36  A    between atoms: _81  and  _83
REMARK   37  A    between atoms: _83  and  _84
REMARK   38  A    between atoms: _87  and  _89
REMARK   39  A    between atoms: _89  and  _90
REMARK   40  A    between atoms: _89  and  _92
REMARK   41  A    between atoms: _92  and  _93
REMARK   42  A    between atoms: _93  and  _94
REMARK   43  A    between atoms: _94  and  _95
REMARK   44  A    between atoms: _95  and  _96
REMARK   45  A    between atoms: _100  and  _102
REMARK   46  A    between atoms: _102  and  _103
REMARK   47  A    between atoms: _102  and  _105
REMARK   48  A    between atoms: _105  and  _106
REMARK   49  A    between atoms: _109  and  _111
REMARK   50  A    between atoms: _111  and  _112
REMARK   51  A    between atoms: _111  and  _114
REMARK   52  A    between atoms: _114  and  _115
REMARK   53  A    between atoms: _115  and  _116
REMARK   54  A    between atoms: _118  and  _120
REMARK   55  A    between atoms: _120  and  _121
REMARK   56  A    between atoms: _120  and  _123
REMARK   57  A    between atoms: _123  and  _124
REMARK   58  A    between atoms: _130  and  _132
REMARK   59  A    between atoms: _132  and  _133
REMARK   60  A    between atoms: _136  and  _138
REMARK   61  A    between atoms: _138  and  _139
REMARK   62  A    between atoms: _138  and  _141
REMARK   63  A    between atoms: _141  and  _142
REMARK   64  A    between atoms: _147  and  _149
REMARK   65  A    between atoms: _149  and  _150
REMARK   66  A    between atoms: _149  and  _152
REMARK   67  A    between atoms: _152  and  _153
REMARK   68  A    between atoms: _156  and  _158
REMARK   69  A    between atoms: _158  and  _159
REMARK   70  A    between atoms: _158  and  _161
REMARK   71  A    between atoms: _161  and  _162
REMARK   72  A    between atoms: _162  and  _163
REMARK   73  A    between atoms: _168  and  _170
REMARK   74  A    between atoms: _170  and  _171
REMARK   75  A    between atoms: _170  and  _173
REMARK   76  A    between atoms: _173  and  _174
REMARK   77  A    between atoms: _178  and  _179
REMARK   78  A    between atoms: _184  and  _186
REMARK   79  A    between atoms: _186  and  _187
REMARK   80  A    between atoms: _186  and  _189
REMARK   81  A    between atoms: _189  and  _190
REMARK   82  A    between atoms: _195  and  _196
REMARK   83  A    between atoms: _198  and  _200
REMARK   84  A    between atoms: _200  and  _201
REMARK   85  A    between atoms: _200  and  _203
REMARK   86  A    between atoms: _203  and  _204
REMARK   87  A    between atoms: _207  and  _209
REMARK   88  A    between atoms: _209  and  _210
REMARK   89  A    between atoms: _209  and  _212
REMARK   90  A    between atoms: _212  and  _213
REMARK   91  A    between atoms: _215  and  _217
REMARK   92  A    between atoms: _217  and  _218
REMARK   93  A    between atoms: _217  and  _220
REMARK   94  A    between atoms: _220  and  _221
REMARK   95  A    between atoms: _226  and  _228
REMARK   96  A    between atoms: _228  and  _229
REMARK   97  A    between atoms: _228  and  _231
REMARK   98  A    between atoms: _231  and  _232
REMARK   99  A    between atoms: _235  and  _237
REMARK  100  A    between atoms: _237  and  _238
REMARK  101  A    between atoms: _237  and  _240
REMARK  102  A    between atoms: _240  and  _241
REMARK  103  A    between atoms: _252  and  _253
REMARK  104  A    between atoms: _258  and  _260
REMARK  105  A    between atoms: _260  and  _261
REMARK  106  A    between atoms: _260  and  _263
REMARK  107  A    between atoms: _263  and  _264
REMARK  108  A    between atoms: _267  and  _269
REMARK  109  A    between atoms: _269  and  _270
REMARK  110  A    between atoms: _269  and  _272
REMARK  111  A    between atoms: _272  and  _273
REMARK  112  A    between atoms: _278  and  _280
REMARK  113  A    between atoms: _280  and  _281
REMARK  114  A    between atoms: _283  and  _285
REMARK  115  A    between atoms: _285  and  _286
REMARK  116  A    between atoms: _285  and  _288
REMARK  117  A    between atoms: _288  and  _289
REMARK  118  A    between atoms: _299  and  _301
REMARK  119  A    between atoms: _301  and  _302
REMARK  120  A    between atoms: _301  and  _304
REMARK  121  A    between atoms: _304  and  _305
REMARK  122  A    between atoms: _310  and  _311
REMARK  123  A    between atoms: _313  and  _315
REMARK  124  A    between atoms: _315  and  _316
REMARK  125  A    between atoms: _315  and  _318
REMARK  126  A    between atoms: _318  and  _319
REMARK  127  A    between atoms: _322  and  _324
REMARK  128  A    between atoms: _324  and  _325
REMARK  129  A    between atoms: _324  and  _327
REMARK  130  A    between atoms: _327  and  _328
REMARK  131  A    between atoms: _333  and  _335
REMARK  132  A    between atoms: _335  and  _336
REMARK  133  A    between atoms: _335  and  _338
REMARK  134  A    between atoms: _338  and  _339
REMARK  135  A    between atoms: _344  and  _346
REMARK  136  A    between atoms: _346  and  _347
REMARK  137  A    between atoms: _346  and  _349
REMARK  138  A    between atoms: _349  and  _350
REMARK  139  A    between atoms: _350  and  _351
REMARK  140  A    between atoms: _354  and  _356
REMARK  141  A    between atoms: _356  and  _357
REMARK  142  A    between atoms: _359  and  _361
REMARK  143  A    between atoms: _361  and  _362
REMARK  144  A    between atoms: _361  and  _364
REMARK  145  A    between atoms: _364  and  _365
REMARK  146  A    between atoms: _367  and  _369
REMARK  147  A    between atoms: _369  and  _370
REMARK  148  A    between atoms: _369  and  _372
REMARK  149  A    between atoms: _372  and  _373
REMARK  150  A    between atoms: _378  and  _379
REMARK  151  A    between atoms: _381  and  _383
REMARK  152  A    between atoms: _383  and  _384
REMARK  153  A    between atoms: _383  and  _386
REMARK  154  A    between atoms: _386  and  _387
REMARK  155  A    between atoms: _392  and  _394
REMARK  156  A    between atoms: _394  and  _395
REMARK  157  A    between atoms: _397  and  _399
REMARK  158  A    between atoms: _399  and  _400
REMARK  159  A    between atoms: _399  and  _402
REMARK  160  A    between atoms: _402  and  _403
REMARK  161  A    between atoms: _408  and  _410
REMARK  162  A    between atoms: _410  and  _411
REMARK  163  A    between atoms: _410  and  _413
REMARK  164  A    between atoms: _413  and  _414
REMARK  165  A    between atoms: _424  and  _426
REMARK  166  A    between atoms: _426  and  _427
REMARK  167  A    between atoms: _426  and  _429
REMARK  168  A    between atoms: _429  and  _430
REMARK  169  A    between atoms: _435  and  _437
REMARK  170  A    between atoms: _437  and  _438
REMARK  171  A    between atoms: _437  and  _440
REMARK  172  A    between atoms: _440  and  _441
REMARK  173  A    between atoms: _441  and  _442
REMARK  174  A    between atoms: _442  and  _443
REMARK  175  A    between atoms: _443  and  _444
REMARK  176  A    between atoms: _448  and  _450
REMARK  177  A    between atoms: _450  and  _451
REMARK  178  A    between atoms: _450  and  _453
REMARK  179  A    between atoms: _453  and  _454
REMARK  180  A    between atoms: _460  and  _462
REMARK  181  A    between atoms: _462  and  _463
REMARK  182  A    between atoms: _465  and  _467
REMARK  183  A    between atoms: _467  and  _468
REMARK  184  A    between atoms: _467  and  _470
REMARK  185  A    between atoms: _470  and  _471
REMARK  186  A    between atoms: _473  and  _475
REMARK  187  A    between atoms: _475  and  _476
REMARK  188  A    between atoms: _475  and  _478
REMARK  189  A    between atoms: _478  and  _479
REMARK  190  A    between atoms: _479  and  _480
REMARK  191  A    between atoms: _480  and  _481
REMARK  192  A    between atoms: _481  and  _482
REMARK  193  A    between atoms: _486  and  _488
REMARK  194  A    between atoms: _488  and  _489
REMARK  195  A    between atoms: _488  and  _491
REMARK  196  A    between atoms: _491  and  _492
REMARK  197  A    between atoms: _497  and  _499
REMARK  198  A    between atoms: _499  and  _500
REMARK  199  A    between atoms: _499  and  _502
REMARK  200  A    between atoms: _502  and  _503
REMARK  201  A    between atoms: _503  and  _504
REMARK  202  A    between atoms: _504  and  _505
REMARK  203  A    between atoms: _514  and  _516
REMARK  204  A    between atoms: _516  and  _517
REMARK  205  A    between atoms: _516  and  _519
REMARK  206  A    between atoms: _519  and  _520
REMARK  207  A    between atoms: _520  and  _521
REMARK  208  A    between atoms: _526  and  _528
REMARK  209  A    between atoms: _528  and  _529
REMARK  210  A    between atoms: _528  and  _531
REMARK  211  A    between atoms: _531  and  _532
REMARK  212  A    between atoms: _532  and  _533
REMARK  213  A    between atoms: _538  and  _540
REMARK  214  A    between atoms: _540  and  _541
REMARK  215  A    between atoms: _540  and  _543
REMARK  216  A    between atoms: _543  and  _544
REMARK  217  A    between atoms: _544  and  _545
REMARK  218  A    between atoms: _547  and  _549
REMARK  219  A    between atoms: _549  and  _550
REMARK  220  A    between atoms: _549  and  _552
REMARK  221  A    between atoms: _552  and  _553
REMARK  222  A    between atoms: _555  and  _557
REMARK  223  A    between atoms: _557  and  _558
REMARK  224  A    between atoms: _557  and  _560
REMARK  225  A    between atoms: _560  and  _561
REMARK  226  A    between atoms: _566  and  _567
REMARK  227  A    between atoms: _569  and  _571
REMARK  228  A    between atoms: _571  and  _572
REMARK  229  A    between atoms: _571  and  _574
REMARK  230  A    between atoms: _574  and  _575
REMARK  231  A    between atoms: _585  and  _587
REMARK  232  A    between atoms: _587  and  _588
REMARK  233  A    between atoms: _587  and  _590
REMARK  234  A    between atoms: _590  and  _591
REMARK  235  A    between atoms: _594  and  _596
REMARK  236  A    between atoms: _596  and  _597
REMARK  237  A    between atoms: _600  and  _602
REMARK  238  A    between atoms: _602  and  _603
REMARK  239  A    between atoms: _602  and  _605
REMARK  240  A    between atoms: _605  and  _606
REMARK                            x       y       z     vdW  Elec       q    Type
REMARK                         _______ _______ _______ _____ _____    ______ ____
ROOT
ATOM      1  O   HOH     1     -29.329   4.211  -3.416  0.00  0.00    +0.000 OA
ENDROOT
TORSDOF 0
REMARK  Name = ../refined-set-2016/4ua8/4ua8_pocket.pdb
REMARK  240 active torsions:
REMARK  status: ('A' for Active; 'I' for Inactive)
REMARK    1  A    between atoms: _1  and  _3
REMARK    2  A    between atoms: _3  and  _4
REMARK    3  A    between atoms: _7  and  _8
REMARK    4  A    between atoms: _13  and  _15
REMARK    5  A    between atoms: _15  and  _16
REMARK    6  A    between atoms: _19  and  _21
REMARK    7  A    between atoms: _21  and  _22
REMARK    8  A    between atoms: _21  and  _24
REMARK    9  A    between atoms: _24  and  _25
REMARK   10  A    between atoms: _25  and  _26
REMARK   11  A    between atoms: _29  and  _31
REMARK   12  A    between atoms: _31  and  _32
REMARK   13  A    between atoms: _31  and  _34
REMARK   14  A    between atoms: _34  and  _35
REMARK   15  A    between atoms: _38  and  _40
REMARK   16  A    between atoms: _40  and  _41
REMARK   17  A    between atoms: _40  and  _43
REMARK   18  A    between atoms: _43  and  _44
REMARK   19  A    between atoms: _46  and  _48
REMARK   20  A    between atoms: _48  and  _49
REMARK   21  A    between atoms: _48  and  _51
REMARK   22  A    between atoms: _51  and  _52
REMARK   23  A    between atoms: _54  and  _56
REMARK   24  A    between atoms: _56  and  _57
REMARK   25  A    between atoms: _56  and  _59
REMARK   26  A    between atoms: _59  and  _60
REMARK   27  A    between atoms: _60  and  _61
REMARK   28  A    between atoms: _64  and  _66
REMARK   29  A    between atoms: _66  and  _67
REMARK   30  A    between atoms: _66  and  _69
REMARK   31  A    between atoms: _69  and  _70
REMARK   32  A    between atoms: _72  and  _74
REMARK   33  A    between atoms: _74  and  _75
REMARK   34  A    between atoms: _74  and  _77
REMARK   35  A    between atoms: _77  and  _78
REMARK   36  A    between atoms: _81  and  _83
REMARK   37  A    between atoms: _83  and  _84
REMARK   38  A    between atoms: _87  and  _89
REMARK   39  A    between atoms: _89  and  _90
REMARK   40  A    between atoms: _89  and  _92
REMARK   41  A    between atoms: _92  and  _93
REMARK   42  A    between atoms: _93  and  _94
REMARK   43  A    between atoms: _94  and  _95
REMARK   44  A    between atoms: _95  and  _96
REMARK   45  A    between atoms: _100  and  _102
REMARK   46  A    between atoms: _102  and  _103
REMARK   47  A    between atoms: _102  and  _105
REMARK   48  A    between atoms: _105  and  _106
REMARK   49  A    between atoms: _109  and  _111
REMARK   50  A    between atoms: _111  and  _112
REMARK   51  A    between atoms: _111  and  _114
REMARK   52  A    between atoms: _114  and  _115
REMARK   53  A    between atoms: _115  and  _116
REMARK   54  A    between atoms: _118  and  _120
REMARK   55  A    between atoms: _120  and  _121
REMARK   56  A    between atoms: _120  and  _123
REMARK   57  A    between atoms: _123  and  _124
REMARK   58  A    between atoms: _130  and  _132
REMARK   59  A    between atoms: _132  and  _133
REMARK   60  A    between atoms: _136  and  _138
REMARK   61  A    between atoms: _138  and  _139
REMARK   62  A    between atoms: _138  and  _141
REMARK   63  A    between atoms: _141  and  _142
REMARK   64  A    between atoms: _147  and  _149
REMARK   65  A    between atoms: _149  and  _150
REMARK   66  A    between atoms: _149  and  _152
REMARK   67  A    between atoms: _152  and  _153
REMARK   68  A    between atoms: _156  and  _158
REMARK   69  A    between atoms: _158  and  _159
REMARK   70  A    between atoms: _158  and  _161
REMARK   71  A    between atoms: _161  and  _162
REMARK   72  A    between atoms: _162  and  _163
REMARK   73  A    between atoms: _168  and  _170
REMARK   74  A    between atoms: _170  and  _171
REMARK   75  A    between atoms: _170  and  _173
REMARK   76  A    between atoms: _173  and  _174
REMARK   77  A    between atoms: _178  and  _179
REMARK   78  A    between atoms: _184  and  _186
REMARK   79  A    between atoms: _186  and  _187
REMARK   80  A    between atoms: _186  and  _189
REMARK   81  A    between atoms: _189  and  _190
REMARK   82  A    between atoms: _195  and  _196
REMARK   83  A    between atoms: _198  and  _200
REMARK   84  A    between atoms: _200  and  _201
REMARK   85  A    between atoms: _200  and  _203
REMARK   86  A    between atoms: _203  and  _204
REMARK   87  A    between atoms: _207  and  _209
REMARK   88  A    between atoms: _209  and  _210
REMARK   89  A    between atoms: _209  and  _212
REMARK   90  A    between atoms: _212  and  _213
REMARK   91  A    between atoms: _215  and  _217
REMARK   92  A    between atoms: _217  and  _218
REMARK   93  A    between atoms: _217  and  _220
REMARK   94  A    between atoms: _220  and  _221
REMARK   95  A    between atoms: _226  and  _228
REMARK   96  A    between atoms: _228  and  _229
REMARK   97  A    between atoms: _228  and  _231
REMARK   98  A    between atoms: _231  and  _232
REMARK   99  A    between atoms: _235  and  _237
REMARK  100  A    between atoms: _237  and  _238
REMARK  101  A    between atoms: _237  and  _240
REMARK  102  A    between atoms: _240  and  _241
REMARK  103  A    between atoms: _252  and  _253
REMARK  104  A    between atoms: _258  and  _260
REMARK  105  A    between atoms: _260  and  _261
REMARK  106  A    between atoms: _260  and  _263
REMARK  107  A    between atoms: _263  and  _264
REMARK  108  A    between atoms: _267  and  _269
REMARK  109  A    between atoms: _269  and  _270
REMARK  110  A    between atoms: _269  and  _272
REMARK  111  A    between atoms: _272  and  _273
REMARK  112  A    between atoms: _278  and  _280
REMARK  113  A    between atoms: _280  and  _281
REMARK  114  A    between atoms: _283  and  _285
REMARK  115  A    between atoms: _285  and  _286
REMARK  116  A    between atoms: _285  and  _288
REMARK  117  A    between atoms: _288  and  _289
REMARK  118  A    between atoms: _299  and  _301
REMARK  119  A    between atoms: _301  and  _302
REMARK  120  A    between atoms: _301  and  _304
REMARK  121  A    between atoms: _304  and  _305
REMARK  122  A    between atoms: _310  and  _311
REMARK  123  A    between atoms: _313  and  _315
REMARK  124  A    between atoms: _315  and  _316
REMARK  125  A    between atoms: _315  and  _318
REMARK  126  A    between atoms: _318  and  _319
REMARK  127  A    between atoms: _322  and  _324
REMARK  128  A    between atoms: _324  and  _325
REMARK  129  A    between atoms: _324  and  _327
REMARK  130  A    between atoms: _327  and  _328
REMARK  131  A    between atoms: _333  and  _335
REMARK  132  A    between atoms: _335  and  _336
REMARK  133  A    between atoms: _335  and  _338
REMARK  134  A    between atoms: _338  and  _339
REMARK  135  A    between atoms: _344  and  _346
REMARK  136  A    between atoms: _346  and  _347
REMARK  137  A    between atoms: _346  and  _349
REMARK  138  A    between atoms: _349  and  _350
REMARK  139  A    between atoms: _350  and  _351
REMARK  140  A    between atoms: _354  and  _356
REMARK  141  A    between atoms: _356  and  _357
REMARK  142  A    between atoms: _359  and  _361
REMARK  143  A    between atoms: _361  and  _362
REMARK  144  A    between atoms: _361  and  _364
REMARK  145  A    between atoms: _364  and  _365
REMARK  146  A    between atoms: _367  and  _369
REMARK  147  A    between atoms: _369  and  _370
REMARK  148  A    between atoms: _369  and  _372
REMARK  149  A    between atoms: _372  and  _373
REMARK  150  A    between atoms: _378  and  _379
REMARK  151  A    between atoms: _381  and  _383
REMARK  152  A    between atoms: _383  and  _384
REMARK  153  A    between atoms: _383  and  _386
REMARK  154  A    between atoms: _386  and  _387
REMARK  155  A    between atoms: _392  and  _394
REMARK  156  A    between atoms: _394  and  _395
REMARK  157  A    between atoms: _397  and  _399
REMARK  158  A    between atoms: _399  and  _400
REMARK  159  A    between atoms: _399  and  _402
REMARK  160  A    between atoms: _402  and  _403
REMARK  161  A    between atoms: _408  and  _410
REMARK  162  A    between atoms: _410  and  _411
REMARK  163  A    between atoms: _410  and  _413
REMARK  164  A    between atoms: _413  and  _414
REMARK  165  A    between atoms: _424  and  _426
REMARK  166  A    between atoms: _426  and  _427
REMARK  167  A    between atoms: _426  and  _429
REMARK  168  A    between atoms: _429  and  _430
REMARK  169  A    between atoms: _435  and  _437
REMARK  170  A    between atoms: _437  and  _438
REMARK  171  A    between atoms: _437  and  _440
REMARK  172  A    between atoms: _440  and  _441
REMARK  173  A    between atoms: _441  and  _442
REMARK  174  A    between atoms: _442  and  _443
REMARK  175  A    between atoms: _443  and  _444
REMARK  176  A    between atoms: _448  and  _450
REMARK  177  A    between atoms: _450  and  _451
REMARK  178  A    between atoms: _450  and  _453
REMARK  179  A    between atoms: _453  and  _454
REMARK  180  A    between atoms: _460  and  _462
REMARK  181  A    between atoms: _462  and  _463
REMARK  182  A    between atoms: _465  and  _467
REMARK  183  A    between atoms: _467  and  _468
REMARK  184  A    between atoms: _467  and  _470
REMARK  185  A    between atoms: _470  and  _471
REMARK  186  A    between atoms: _473  and  _475
REMARK  187  A    between atoms: _475  and  _476
REMARK  188  A    between atoms: _475  and  _478
REMARK  189  A    between atoms: _478  and  _479
REMARK  190  A    between atoms: _479  and  _480
REMARK  191  A    between atoms: _480  and  _481
REMARK  192  A    between atoms: _481  and  _482
REMARK  193  A    between atoms: _486  and  _488
REMARK  194  A    between atoms: _488  and  _489
REMARK  195  A    between atoms: _488  and  _491
REMARK  196  A    between atoms: _491  and  _492
REMARK  197  A    between atoms: _497  and  _499
REMARK  198  A    between atoms: _499  and  _500
REMARK  199  A    between atoms: _499  and  _502
REMARK  200  A    between atoms: _502  and  _503
REMARK  201  A    between atoms: _503  and  _504
REMARK  202  A    between atoms: _504  and  _505
REMARK  203  A    between atoms: _514  and  _516
REMARK  204  A    between atoms: _516  and  _517
REMARK  205  A    between atoms: _516  and  _519
REMARK  206  A    between atoms: _519  and  _520
REMARK  207  A    between atoms: _520  and  _521
REMARK  208  A    between atoms: _526  and  _528
REMARK  209  A    between atoms: _528  and  _529
REMARK  210  A    between atoms: _528  and  _531
REMARK  211  A    between atoms: _531  and  _532
REMARK  212  A    between atoms: _532  and  _533
REMARK  213  A    between atoms: _538  and  _540
REMARK  214  A    between atoms: _540  and  _541
REMARK  215  A    between atoms: _540  and  _543
REMARK  216  A    between atoms: _543  and  _544
REMARK  217  A    between atoms: _544  and  _545
REMARK  218  A    between atoms: _547  and  _549
REMARK  219  A    between atoms: _549  and  _550
REMARK  220  A    between atoms: _549  and  _552
REMARK  221  A    between atoms: _552  and  _553
REMARK  222  A    between atoms: _555  and  _557
REMARK  223  A    between atoms: _557  and  _558
REMARK  224  A    between atoms: _557  and  _560
REMARK  225  A    between atoms: _560  and  _561
REMARK  226  A    between atoms: _566  and  _567
REMARK  227  A    between atoms: _569  and  _571
REMARK  228  A    between atoms: _571  and  _572
REMARK  229  A    between atoms: _571  and  _574
REMARK  230  A    between atoms: _574  and  _575
REMARK  231  A    between atoms: _585  and  _587
REMARK  232  A    between atoms: _587  and  _588
REMARK  233  A    between atoms: _587  and  _590
REMARK  234  A    between atoms: _590  and  _591
REMARK  235  A    between atoms: _594  and  _596
REMARK  236  A    between atoms: _596  and  _597
REMARK  237  A    between atoms: _600  and  _602
REMARK  238  A    between atoms: _602  and  _603
REMARK  239  A    between atoms: _602  and  _605
REMARK  240  A    between atoms: _605  and  _606
REMARK                            x       y       z     vdW  Elec       q    Type
REMARK                         _______ _______ _______ _____ _____    ______ ____
ROOT
ATOM      1  O   HOH     1     -36.465   8.301  -8.560  0.00  0.00    +0.000 OA
ENDROOT
TORSDOF 0
REMARK  Name = ../refined-set-2016/4ua8/4ua8_pocket.pdb
REMARK  240 active torsions:
REMARK  status: ('A' for Active; 'I' for Inactive)
REMARK    1  A    between atoms: _1  and  _3
REMARK    2  A    between atoms: _3  and  _4
REMARK    3  A    between atoms: _7  and  _8
REMARK    4  A    between atoms: _13  and  _15
REMARK    5  A    between atoms: _15  and  _16
REMARK    6  A    between atoms: _19  and  _21
REMARK    7  A    between atoms: _21  and  _22
REMARK    8  A    between atoms: _21  and  _24
REMARK    9  A    between atoms: _24  and  _25
REMARK   10  A    between atoms: _25  and  _26
REMARK   11  A    between atoms: _29  and  _31
REMARK   12  A    between atoms: _31  and  _32
REMARK   13  A    between atoms: _31  and  _34
REMARK   14  A    between atoms: _34  and  _35
REMARK   15  A    between atoms: _38  and  _40
REMARK   16  A    between atoms: _40  and  _41
REMARK   17  A    between atoms: _40  and  _43
REMARK   18  A    between atoms: _43  and  _44
REMARK   19  A    between atoms: _46  and  _48
REMARK   20  A    between atoms: _48  and  _49
REMARK   21  A    between atoms: _48  and  _51
REMARK   22  A    between atoms: _51  and  _52
REMARK   23  A    between atoms: _54  and  _56
REMARK   24  A    between atoms: _56  and  _57
REMARK   25  A    between atoms: _56  and  _59
REMARK   26  A    between atoms: _59  and  _60
REMARK   27  A    between atoms: _60  and  _61
REMARK   28  A    between atoms: _64  and  _66
REMARK   29  A    between atoms: _66  and  _67
REMARK   30  A    between atoms: _66  and  _69
REMARK   31  A    between atoms: _69  and  _70
REMARK   32  A    between atoms: _72  and  _74
REMARK   33  A    between atoms: _74  and  _75
REMARK   34  A    between atoms: _74  and  _77
REMARK   35  A    between atoms: _77  and  _78
REMARK   36  A    between atoms: _81  and  _83
REMARK   37  A    between atoms: _83  and  _84
REMARK   38  A    between atoms: _87  and  _89
REMARK   39  A    between atoms: _89  and  _90
REMARK   40  A    between atoms: _89  and  _92
REMARK   41  A    between atoms: _92  and  _93
REMARK   42  A    between atoms: _93  and  _94
REMARK   43  A    between atoms: _94  and  _95
REMARK   44  A    between atoms: _95  and  _96
REMARK   45  A    between atoms: _100  and  _102
REMARK   46  A    between atoms: _102  and  _103
REMARK   47  A    between atoms: _102  and  _105
REMARK   48  A    between atoms: _105  and  _106
REMARK   49  A    between atoms: _109  and  _111
REMARK   50  A    between atoms: _111  and  _112
REMARK   51  A    between atoms: _111  and  _114
REMARK   52  A    between atoms: _114  and  _115
REMARK   53  A    between atoms: _115  and  _116
REMARK   54  A    between atoms: _118  and  _120
REMARK   55  A    between atoms: _120  and  _121
REMARK   56  A    between atoms: _120  and  _123
REMARK   57  A    between atoms: _123  and  _124
REMARK   58  A    between atoms: _130  and  _132
REMARK   59  A    between atoms: _132  and  _133
REMARK   60  A    between atoms: _136  and  _138
REMARK   61  A    between atoms: _138  and  _139
REMARK   62  A    between atoms: _138  and  _141
REMARK   63  A    between atoms: _141  and  _142
REMARK   64  A    between atoms: _147  and  _149
REMARK   65  A    between atoms: _149  and  _150
REMARK   66  A    between atoms: _149  and  _152
REMARK   67  A    between atoms: _152  and  _153
REMARK   68  A    between atoms: _156  and  _158
REMARK   69  A    between atoms: _158  and  _159
REMARK   70  A    between atoms: _158  and  _161
REMARK   71  A    between atoms: _161  and  _162
REMARK   72  A    between atoms: _162  and  _163
REMARK   73  A    between atoms: _168  and  _170
REMARK   74  A    between atoms: _170  and  _171
REMARK   75  A    between atoms: _170  and  _173
REMARK   76  A    between atoms: _173  and  _174
REMARK   77  A    between atoms: _178  and  _179
REMARK   78  A    between atoms: _184  and  _186
REMARK   79  A    between atoms: _186  and  _187
REMARK   80  A    between atoms: _186  and  _189
REMARK   81  A    between atoms: _189  and  _190
REMARK   82  A    between atoms: _195  and  _196
REMARK   83  A    between atoms: _198  and  _200
REMARK   84  A    between atoms: _200  and  _201
REMARK   85  A    between atoms: _200  and  _203
REMARK   86  A    between atoms: _203  and  _204
REMARK   87  A    between atoms: _207  and  _209
REMARK   88  A    between atoms: _209  and  _210
REMARK   89  A    between atoms: _209  and  _212
REMARK   90  A    between atoms: _212  and  _213
REMARK   91  A    between atoms: _215  and  _217
REMARK   92  A    between atoms: _217  and  _218
REMARK   93  A    between atoms: _217  and  _220
REMARK   94  A    between atoms: _220  and  _221
REMARK   95  A    between atoms: _226  and  _228
REMARK   96  A    between atoms: _228  and  _229
REMARK   97  A    between atoms: _228  and  _231
REMARK   98  A    between atoms: _231  and  _232
REMARK   99  A    between atoms: _235  and  _237
REMARK  100  A    between atoms: _237  and  _238
REMARK  101  A    between atoms: _237  and  _240
REMARK  102  A    between atoms: _240  and  _241
REMARK  103  A    between atoms: _252  and  _253
REMARK  104  A    between atoms: _258  and  _260
REMARK  105  A    between atoms: _260  and  _261
REMARK  106  A    between atoms: _260  and  _263
REMARK  107  A    between atoms: _263  and  _264
REMARK  108  A    between atoms: _267  and  _269
REMARK  109  A    between atoms: _269  and  _270
REMARK  110  A    between atoms: _269  and  _272
REMARK  111  A    between atoms: _272  and  _273
REMARK  112  A    between atoms: _278  and  _280
REMARK  113  A    between atoms: _280  and  _281
REMARK  114  A    between atoms: _283  and  _285
REMARK  115  A    between atoms: _285  and  _286
REMARK  116  A    between atoms: _285  and  _288
REMARK  117  A    between atoms: _288  and  _289
REMARK  118  A    between atoms: _299  and  _301
REMARK  119  A    between atoms: _301  and  _302
REMARK  120  A    between atoms: _301  and  _304
REMARK  121  A    between atoms: _304  and  _305
REMARK  122  A    between atoms: _310  and  _311
REMARK  123  A    between atoms: _313  and  _315
REMARK  124  A    between atoms: _315  and  _316
REMARK  125  A    between atoms: _315  and  _318
REMARK  126  A    between atoms: _318  and  _319
REMARK  127  A    between atoms: _322  and  _324
REMARK  128  A    between atoms: _324  and  _325
REMARK  129  A    between atoms: _324  and  _327
REMARK  130  A    between atoms: _327  and  _328
REMARK  131  A    between atoms: _333  and  _335
REMARK  132  A    between atoms: _335  and  _336
REMARK  133  A    between atoms: _335  and  _338
REMARK  134  A    between atoms: _338  and  _339
REMARK  135  A    between atoms: _344  and  _346
REMARK  136  A    between atoms: _346  and  _347
REMARK  137  A    between atoms: _346  and  _349
REMARK  138  A    between atoms: _349  and  _350
REMARK  139  A    between atoms: _350  and  _351
REMARK  140  A    between atoms: _354  and  _356
REMARK  141  A    between atoms: _356  and  _357
REMARK  142  A    between atoms: _359  and  _361
REMARK  143  A    between atoms: _361  and  _362
REMARK  144  A    between atoms: _361  and  _364
REMARK  145  A    between atoms: _364  and  _365
REMARK  146  A    between atoms: _367  and  _369
REMARK  147  A    between atoms: _369  and  _370
REMARK  148  A    between atoms: _369  and  _372
REMARK  149  A    between atoms: _372  and  _373
REMARK  150  A    between atoms: _378  and  _379
REMARK  151  A    between atoms: _381  and  _383
REMARK  152  A    between atoms: _383  and  _384
REMARK  153  A    between atoms: _383  and  _386
REMARK  154  A    between atoms: _386  and  _387
REMARK  155  A    between atoms: _392  and  _394
REMARK  156  A    between atoms: _394  and  _395
REMARK  157  A    between atoms: _397  and  _399
REMARK  158  A    between atoms: _399  and  _400
REMARK  159  A    between atoms: _399  and  _402
REMARK  160  A    between atoms: _402  and  _403
REMARK  161  A    between atoms: _408  and  _410
REMARK  162  A    between atoms: _410  and  _411
REMARK  163  A    between atoms: _410  and  _413
REMARK  164  A    between atoms: _413  and  _414
REMARK  165  A    between atoms: _424  and  _426
REMARK  166  A    between atoms: _426  and  _427
REMARK  167  A    between atoms: _426  and  _429
REMARK  168  A    between atoms: _429  and  _430
REMARK  169  A    between atoms: _435  and  _437
REMARK  170  A    between atoms: _437  and  _438
REMARK  171  A    between atoms: _437  and  _440
REMARK  172  A    between atoms: _440  and  _441
REMARK  173  A    between atoms: _441  and  _442
REMARK  174  A    between atoms: _442  and  _443
REMARK  175  A    between atoms: _443  and  _444
REMARK  176  A    between atoms: _448  and  _450
REMARK  177  A    between atoms: _450  and  _451
REMARK  178  A    between atoms: _450  and  _453
REMARK  179  A    between atoms: _453  and  _454
REMARK  180  A    between atoms: _460  and  _462
REMARK  181  A    between atoms: _462  and  _463
REMARK  182  A    between atoms: _465  and  _467
REMARK  183  A    between atoms: _467  and  _468
REMARK  184  A    between atoms: _467  and  _470
REMARK  185  A    between atoms: _470  and  _471
REMARK  186  A    between atoms: _473  and  _475
REMARK  187  A    between atoms: _475  and  _476
REMARK  188  A    between atoms: _475  and  _478
REMARK  189  A    between atoms: _478  and  _479
REMARK  190  A    between atoms: _479  and  _480
REMARK  191  A    between atoms: _480  and  _481
REMARK  192  A    between atoms: _481  and  _482
REMARK  193  A    between atoms: _486  and  _488
REMARK  194  A    between atoms: _488  and  _489
REMARK  195  A    between atoms: _488  and  _491
REMARK  196  A    between atoms: _491  and  _492
REMARK  197  A    between atoms: _497  and  _499
REMARK  198  A    between atoms: _499  and  _500
REMARK  199  A    between atoms: _499  and  _502
REMARK  200  A    between atoms: _502  and  _503
REMARK  201  A    between atoms: _503  and  _504
REMARK  202  A    between atoms: _504  and  _505
REMARK  203  A    between atoms: _514  and  _516
REMARK  204  A    between atoms: _516  and  _517
REMARK  205  A    between atoms: _516  and  _519
REMARK  206  A    between atoms: _519  and  _520
REMARK  207  A    between atoms: _520  and  _521
REMARK  208  A    between atoms: _526  and  _528
REMARK  209  A    between atoms: _528  and  _529
REMARK  210  A    between atoms: _528  and  _531
REMARK  211  A    between atoms: _531  and  _532
REMARK  212  A    between atoms: _532  and  _533
REMARK  213  A    between atoms: _538  and  _540
REMARK  214  A    between atoms: _540  and  _541
REMARK  215  A    between atoms: _540  and  _543
REMARK  216  A    between atoms: _543  and  _544
REMARK  217  A    between atoms: _544  and  _545
REMARK  218  A    between atoms: _547  and  _549
REMARK  219  A    between atoms: _549  and  _550
REMARK  220  A    between atoms: _549  and  _552
REMARK  221  A    between atoms: _552  and  _553
REMARK  222  A    between atoms: _555  and  _557
REMARK  223  A    between atoms: _557  and  _558
REMARK  224  A    between atoms: _557  and  _560
REMARK  225  A    between atoms: _560  and  _561
REMARK  226  A    between atoms: _566  and  _567
REMARK  227  A    between atoms: _569  and  _571
REMARK  228  A    between atoms: _571  and  _572
REMARK  229  A    between atoms: _571  and  _574
REMARK  230  A    between atoms: _574  and  _575
REMARK  231  A    between atoms: _585  and  _587
REMARK  232  A    between atoms: _587  and  _588
REMARK  233  A    between atoms: _587  and  _590
REMARK  234  A    between atoms: _590  and  _591
REMARK  235  A    between atoms: _594  and  _596
REMARK  236  A    between atoms: _596  and  _597
REMARK  237  A    between atoms: _600  and  _602
REMARK  238  A    between atoms: _602  and  _603
REMARK  239  A    between atoms: _602  and  _605
REMARK  240  A    between atoms: _605  and  _606
REMARK                            x       y       z     vdW  Elec       q    Type
REMARK                         _______ _______ _______ _____ _____    ______ ____
ROOT
ATOM      1  O   HOH     1     -31.877   3.387  -4.097  0.00  0.00    +0.000 OA
ENDROOT
TORSDOF 0
REMARK  Name = ../refined-set-2016/4ua8/4ua8_pocket.pdb
REMARK  240 active torsions:
REMARK  status: ('A' for Active; 'I' for Inactive)
REMARK    1  A    between atoms: _1  and  _3
REMARK    2  A    between atoms: _3  and  _4
REMARK    3  A    between atoms: _7  and  _8
REMARK    4  A    between atoms: _13  and  _15
REMARK    5  A    between atoms: _15  and  _16
REMARK    6  A    between atoms: _19  and  _21
REMARK    7  A    between atoms: _21  and  _22
REMARK    8  A    between atoms: _21  and  _24
REMARK    9  A    between atoms: _24  and  _25
REMARK   10  A    between atoms: _25  and  _26
REMARK   11  A    between atoms: _29  and  _31
REMARK   12  A    between atoms: _31  and  _32
REMARK   13  A    between atoms: _31  and  _34
REMARK   14  A    between atoms: _34  and  _35
REMARK   15  A    between atoms: _38  and  _40
REMARK   16  A    between atoms: _40  and  _41
REMARK   17  A    between atoms: _40  and  _43
REMARK   18  A    between atoms: _43  and  _44
REMARK   19  A    between atoms: _46  and  _48
REMARK   20  A    between atoms: _48  and  _49
REMARK   21  A    between atoms: _48  and  _51
REMARK   22  A    between atoms: _51  and  _52
REMARK   23  A    between atoms: _54  and  _56
REMARK   24  A    between atoms: _56  and  _57
REMARK   25  A    between atoms: _56  and  _59
REMARK   26  A    between atoms: _59  and  _60
REMARK   27  A    between atoms: _60  and  _61
REMARK   28  A    between atoms: _64  and  _66
REMARK   29  A    between atoms: _66  and  _67
REMARK   30  A    between atoms: _66  and  _69
REMARK   31  A    between atoms: _69  and  _70
REMARK   32  A    between atoms: _72  and  _74
REMARK   33  A    between atoms: _74  and  _75
REMARK   34  A    between atoms: _74  and  _77
REMARK   35  A    between atoms: _77  and  _78
REMARK   36  A    between atoms: _81  and  _83
REMARK   37  A    between atoms: _83  and  _84
REMARK   38  A    between atoms: _87  and  _89
REMARK   39  A    between atoms: _89  and  _90
REMARK   40  A    between atoms: _89  and  _92
REMARK   41  A    between atoms: _92  and  _93
REMARK   42  A    between atoms: _93  and  _94
REMARK   43  A    between atoms: _94  and  _95
REMARK   44  A    between atoms: _95  and  _96
REMARK   45  A    between atoms: _100  and  _102
REMARK   46  A    between atoms: _102  and  _103
REMARK   47  A    between atoms: _102  and  _105
REMARK   48  A    between atoms: _105  and  _106
REMARK   49  A    between atoms: _109  and  _111
REMARK   50  A    between atoms: _111  and  _112
REMARK   51  A    between atoms: _111  and  _114
REMARK   52  A    between atoms: _114  and  _115
REMARK   53  A    between atoms: _115  and  _116
REMARK   54  A    between atoms: _118  and  _120
REMARK   55  A    between atoms: _120  and  _121
REMARK   56  A    between atoms: _120  and  _123
REMARK   57  A    between atoms: _123  and  _124
REMARK   58  A    between atoms: _130  and  _132
REMARK   59  A    between atoms: _132  and  _133
REMARK   60  A    between atoms: _136  and  _138
REMARK   61  A    between atoms: _138  and  _139
REMARK   62  A    between atoms: _138  and  _141
REMARK   63  A    between atoms: _141  and  _142
REMARK   64  A    between atoms: _147  and  _149
REMARK   65  A    between atoms: _149  and  _150
REMARK   66  A    between atoms: _149  and  _152
REMARK   67  A    between atoms: _152  and  _153
REMARK   68  A    between atoms: _156  and  _158
REMARK   69  A    between atoms: _158  and  _159
REMARK   70  A    between atoms: _158  and  _161
REMARK   71  A    between atoms: _161  and  _162
REMARK   72  A    between atoms: _162  and  _163
REMARK   73  A    between atoms: _168  and  _170
REMARK   74  A    between atoms: _170  and  _171
REMARK   75  A    between atoms: _170  and  _173
REMARK   76  A    between atoms: _173  and  _174
REMARK   77  A    between atoms: _178  and  _179
REMARK   78  A    between atoms: _184  and  _186
REMARK   79  A    between atoms: _186  and  _187
REMARK   80  A    between atoms: _186  and  _189
REMARK   81  A    between atoms: _189  and  _190
REMARK   82  A    between atoms: _195  and  _196
REMARK   83  A    between atoms: _198  and  _200
REMARK   84  A    between atoms: _200  and  _201
REMARK   85  A    between atoms: _200  and  _203
REMARK   86  A    between atoms: _203  and  _204
REMARK   87  A    between atoms: _207  and  _209
REMARK   88  A    between atoms: _209  and  _210
REMARK   89  A    between atoms: _209  and  _212
REMARK   90  A    between atoms: _212  and  _213
REMARK   91  A    between atoms: _215  and  _217
REMARK   92  A    between atoms: _217  and  _218
REMARK   93  A    between atoms: _217  and  _220
REMARK   94  A    between atoms: _220  and  _221
REMARK   95  A    between atoms: _226  and  _228
REMARK   96  A    between atoms: _228  and  _229
REMARK   97  A    between atoms: _228  and  _231
REMARK   98  A    between atoms: _231  and  _232
REMARK   99  A    between atoms: _235  and  _237
REMARK  100  A    between atoms: _237  and  _238
REMARK  101  A    between atoms: _237  and  _240
REMARK  102  A    between atoms: _240  and  _241
REMARK  103  A    between atoms: _252  and  _253
REMARK  104  A    between atoms: _258  and  _260
REMARK  105  A    between atoms: _260  and  _261
REMARK  106  A    between atoms: _260  and  _263
REMARK  107  A    between atoms: _263  and  _264
REMARK  108  A    between atoms: _267  and  _269
REMARK  109  A    between atoms: _269  and  _270
REMARK  110  A    between atoms: _269  and  _272
REMARK  111  A    between atoms: _272  and  _273
REMARK  112  A    between atoms: _278  and  _280
REMARK  113  A    between atoms: _280  and  _281
REMARK  114  A    between atoms: _283  and  _285
REMARK  115  A    between atoms: _285  and  _286
REMARK  116  A    between atoms: _285  and  _288
REMARK  117  A    between atoms: _288  and  _289
REMARK  118  A    between atoms: _299  and  _301
REMARK  119  A    between atoms: _301  and  _302
REMARK  120  A    between atoms: _301  and  _304
REMARK  121  A    between atoms: _304  and  _305
REMARK  122  A    between atoms: _310  and  _311
REMARK  123  A    between atoms: _313  and  _315
REMARK  124  A    between atoms: _315  and  _316
REMARK  125  A    between atoms: _315  and  _318
REMARK  126  A    between atoms: _318  and  _319
REMARK  127  A    between atoms: _322  and  _324
REMARK  128  A    between atoms: _324  and  _325
REMARK  129  A    between atoms: _324  and  _327
REMARK  130  A    between atoms: _327  and  _328
REMARK  131  A    between atoms: _333  and  _335
REMARK  132  A    between atoms: _335  and  _336
REMARK  133  A    between atoms: _335  and  _338
REMARK  134  A    between atoms: _338  and  _339
REMARK  135  A    between atoms: _344  and  _346
REMARK  136  A    between atoms: _346  and  _347
REMARK  137  A    between atoms: _346  and  _349
REMARK  138  A    between atoms: _349  and  _350
REMARK  139  A    between atoms: _350  and  _351
REMARK  140  A    between atoms: _354  and  _356
REMARK  141  A    between atoms: _356  and  _357
REMARK  142  A    between atoms: _359  and  _361
REMARK  143  A    between atoms: _361  and  _362
REMARK  144  A    between atoms: _361  and  _364
REMARK  145  A    between atoms: _364  and  _365
REMARK  146  A    between atoms: _367  and  _369
REMARK  147  A    between atoms: _369  and  _370
REMARK  148  A    between atoms: _369  and  _372
REMARK  149  A    between atoms: _372  and  _373
REMARK  150  A    between atoms: _378  and  _379
REMARK  151  A    between atoms: _381  and  _383
REMARK  152  A    between atoms: _383  and  _384
REMARK  153  A    between atoms: _383  and  _386
REMARK  154  A    between atoms: _386  and  _387
REMARK  155  A    between atoms: _392  and  _394
REMARK  156  A    between atoms: _394  and  _395
REMARK  157  A    between atoms: _397  and  _399
REMARK  158  A    between atoms: _399  and  _400
REMARK  159  A    between atoms: _399  and  _402
REMARK  160  A    between atoms: _402  and  _403
REMARK  161  A    between atoms: _408  and  _410
REMARK  162  A    between atoms: _410  and  _411
REMARK  163  A    between atoms: _410  and  _413
REMARK  164  A    between atoms: _413  and  _414
REMARK  165  A    between atoms: _424  and  _426
REMARK  166  A    between atoms: _426  and  _427
REMARK  167  A    between atoms: _426  and  _429
REMARK  168  A    between atoms: _429  and  _430
REMARK  169  A    between atoms: _435  and  _437
REMARK  170  A    between atoms: _437  and  _438
REMARK  171  A    between atoms: _437  and  _440
REMARK  172  A    between atoms: _440  and  _441
REMARK  173  A    between atoms: _441  and  _442
REMARK  174  A    between atoms: _442  and  _443
REMARK  175  A    between atoms: _443  and  _444
REMARK  176  A    between atoms: _448  and  _450
REMARK  177  A    between atoms: _450  and  _451
REMARK  178  A    between atoms: _450  and  _453
REMARK  179  A    between atoms: _453  and  _454
REMARK  180  A    between atoms: _460  and  _462
REMARK  181  A    between atoms: _462  and  _463
REMARK  182  A    between atoms: _465  and  _467
REMARK  183  A    between atoms: _467  and  _468
REMARK  184  A    between atoms: _467  and  _470
REMARK  185  A    between atoms: _470  and  _471
REMARK  186  A    between atoms: _473  and  _475
REMARK  187  A    between atoms: _475  and  _476
REMARK  188  A    between atoms: _475  and  _478
REMARK  189  A    between atoms: _478  and  _479
REMARK  190  A    between atoms: _479  and  _480
REMARK  191  A    between atoms: _480  and  _481
REMARK  192  A    between atoms: _481  and  _482
REMARK  193  A    between atoms: _486  and  _488
REMARK  194  A    between atoms: _488  and  _489
REMARK  195  A    between atoms: _488  and  _491
REMARK  196  A    between atoms: _491  and  _492
REMARK  197  A    between atoms: _497  and  _499
REMARK  198  A    between atoms: _499  and  _500
REMARK  199  A    between atoms: _499  and  _502
REMARK  200  A    between atoms: _502  and  _503
REMARK  201  A    between atoms: _503  and  _504
REMARK  202  A    between atoms: _504  and  _505
REMARK  203  A    between atoms: _514  and  _516
REMARK  204  A    between atoms: _516  and  _517
REMARK  205  A    between atoms: _516  and  _519
REMARK  206  A    between atoms: _519  and  _520
REMARK  207  A    between atoms: _520  and  _521
REMARK  208  A    between atoms: _526  and  _528
REMARK  209  A    between atoms: _528  and  _529
REMARK  210  A    between atoms: _528  and  _531
REMARK  211  A    between atoms: _531  and  _532
REMARK  212  A    between atoms: _532  and  _533
REMARK  213  A    between atoms: _538  and  _540
REMARK  214  A    between atoms: _540  and  _541
REMARK  215  A    between atoms: _540  and  _543
REMARK  216  A    between atoms: _543  and  _544
REMARK  217  A    between atoms: _544  and  _545
REMARK  218  A    between atoms: _547  and  _549
REMARK  219  A    between atoms: _549  and  _550
REMARK  220  A    between atoms: _549  and  _552
REMARK  221  A    between atoms: _552  and  _553
REMARK  222  A    between atoms: _555  and  _557
REMARK  223  A    between atoms: _557  and  _558
REMARK  224  A    between atoms: _557  and  _560
REMARK  225  A    between atoms: _560  and  _561
REMARK  226  A    between atoms: _566  and  _567
REMARK  227  A    between atoms: _569  and  _571
REMARK  228  A    between atoms: _571  and  _572
REMARK  229  A    between atoms: _571  and  _574
REMARK  230  A    between atoms: _574  and  _575
REMARK  231  A    between atoms: _585  and  _587
REMARK  232  A    between atoms: _587  and  _588
REMARK  233  A    between atoms: _587  and  _590
REMARK  234  A    between atoms: _590  and  _591
REMARK  235  A    between atoms: _594  and  _596
REMARK  236  A    between atoms: _596  and  _597
REMARK  237  A    between atoms: _600  and  _602
REMARK  238  A    between atoms: _602  and  _603
REMARK  239  A    between atoms: _602  and  _605
REMARK  240  A    between atoms: _605  and  _606
REMARK                            x       y       z     vdW  Elec       q    Type
REMARK                         _______ _______ _______ _____ _____    ______ ____
ROOT
ATOM      1  O   HOH     1     -28.472   1.641  -3.726  0.00  0.00    +0.000 OA
ENDROOT
TORSDOF 0
REMARK  Name = ../refined-set-2016/4ua8/4ua8_pocket.pdb
REMARK  240 active torsions:
REMARK  status: ('A' for Active; 'I' for Inactive)
REMARK    1  A    between atoms: _1  and  _3
REMARK    2  A    between atoms: _3  and  _4
REMARK    3  A    between atoms: _7  and  _8
REMARK    4  A    between atoms: _13  and  _15
REMARK    5  A    between atoms: _15  and  _16
REMARK    6  A    between atoms: _19  and  _21
REMARK    7  A    between atoms: _21  and  _22
REMARK    8  A    between atoms: _21  and  _24
REMARK    9  A    between atoms: _24  and  _25
REMARK   10  A    between atoms: _25  and  _26
REMARK   11  A    between atoms: _29  and  _31
REMARK   12  A    between atoms: _31  and  _32
REMARK   13  A    between atoms: _31  and  _34
REMARK   14  A    between atoms: _34  and  _35
REMARK   15  A    between atoms: _38  and  _40
REMARK   16  A    between atoms: _40  and  _41
REMARK   17  A    between atoms: _40  and  _43
REMARK   18  A    between atoms: _43  and  _44
REMARK   19  A    between atoms: _46  and  _48
REMARK   20  A    between atoms: _48  and  _49
REMARK   21  A    between atoms: _48  and  _51
REMARK   22  A    between atoms: _51  and  _52
REMARK   23  A    between atoms: _54  and  _56
REMARK   24  A    between atoms: _56  and  _57
REMARK   25  A    between atoms: _56  and  _59
REMARK   26  A    between atoms: _59  and  _60
REMARK   27  A    between atoms: _60  and  _61
REMARK   28  A    between atoms: _64  and  _66
REMARK   29  A    between atoms: _66  and  _67
REMARK   30  A    between atoms: _66  and  _69
REMARK   31  A    between atoms: _69  and  _70
REMARK   32  A    between atoms: _72  and  _74
REMARK   33  A    between atoms: _74  and  _75
REMARK   34  A    between atoms: _74  and  _77
REMARK   35  A    between atoms: _77  and  _78
REMARK   36  A    between atoms: _81  and  _83
REMARK   37  A    between atoms: _83  and  _84
REMARK   38  A    between atoms: _87  and  _89
REMARK   39  A    between atoms: _89  and  _90
REMARK   40  A    between atoms: _89  and  _92
REMARK   41  A    between atoms: _92  and  _93
REMARK   42  A    between atoms: _93  and  _94
REMARK   43  A    between atoms: _94  and  _95
REMARK   44  A    between atoms: _95  and  _96
REMARK   45  A    between atoms: _100  and  _102
REMARK   46  A    between atoms: _102  and  _103
REMARK   47  A    between atoms: _102  and  _105
REMARK   48  A    between atoms: _105  and  _106
REMARK   49  A    between atoms: _109  and  _111
REMARK   50  A    between atoms: _111  and  _112
REMARK   51  A    between atoms: _111  and  _114
REMARK   52  A    between atoms: _114  and  _115
REMARK   53  A    between atoms: _115  and  _116
REMARK   54  A    between atoms: _118  and  _120
REMARK   55  A    between atoms: _120  and  _121
REMARK   56  A    between atoms: _120  and  _123
REMARK   57  A    between atoms: _123  and  _124
REMARK   58  A    between atoms: _130  and  _132
REMARK   59  A    between atoms: _132  and  _133
REMARK   60  A    between atoms: _136  and  _138
REMARK   61  A    between atoms: _138  and  _139
REMARK   62  A    between atoms: _138  and  _141
REMARK   63  A    between atoms: _141  and  _142
REMARK   64  A    between atoms: _147  and  _149
REMARK   65  A    between atoms: _149  and  _150
REMARK   66  A    between atoms: _149  and  _152
REMARK   67  A    between atoms: _152  and  _153
REMARK   68  A    between atoms: _156  and  _158
REMARK   69  A    between atoms: _158  and  _159
REMARK   70  A    between atoms: _158  and  _161
REMARK   71  A    between atoms: _161  and  _162
REMARK   72  A    between atoms: _162  and  _163
REMARK   73  A    between atoms: _168  and  _170
REMARK   74  A    between atoms: _170  and  _171
REMARK   75  A    between atoms: _170  and  _173
REMARK   76  A    between atoms: _173  and  _174
REMARK   77  A    between atoms: _178  and  _179
REMARK   78  A    between atoms: _184  and  _186
REMARK   79  A    between atoms: _186  and  _187
REMARK   80  A    between atoms: _186  and  _189
REMARK   81  A    between atoms: _189  and  _190
REMARK   82  A    between atoms: _195  and  _196
REMARK   83  A    between atoms: _198  and  _200
REMARK   84  A    between atoms: _200  and  _201
REMARK   85  A    between atoms: _200  and  _203
REMARK   86  A    between atoms: _203  and  _204
REMARK   87  A    between atoms: _207  and  _209
REMARK   88  A    between atoms: _209  and  _210
REMARK   89  A    between atoms: _209  and  _212
REMARK   90  A    between atoms: _212  and  _213
REMARK   91  A    between atoms: _215  and  _217
REMARK   92  A    between atoms: _217  and  _218
REMARK   93  A    between atoms: _217  and  _220
REMARK   94  A    between atoms: _220  and  _221
REMARK   95  A    between atoms: _226  and  _228
REMARK   96  A    between atoms: _228  and  _229
REMARK   97  A    between atoms: _228  and  _231
REMARK   98  A    between atoms: _231  and  _232
REMARK   99  A    between atoms: _235  and  _237
REMARK  100  A    between atoms: _237  and  _238
REMARK  101  A    between atoms: _237  and  _240
REMARK  102  A    between atoms: _240  and  _241
REMARK  103  A    between atoms: _252  and  _253
REMARK  104  A    between atoms: _258  and  _260
REMARK  105  A    between atoms: _260  and  _261
REMARK  106  A    between atoms: _260  and  _263
REMARK  107  A    between atoms: _263  and  _264
REMARK  108  A    between atoms: _267  and  _269
REMARK  109  A    between atoms: _269  and  _270
REMARK  110  A    between atoms: _269  and  _272
REMARK  111  A    between atoms: _272  and  _273
REMARK  112  A    between atoms: _278  and  _280
REMARK  113  A    between atoms: _280  and  _281
REMARK  114  A    between atoms: _283  and  _285
REMARK  115  A    between atoms: _285  and  _286
REMARK  116  A    between atoms: _285  and  _288
REMARK  117  A    between atoms: _288  and  _289
REMARK  118  A    between atoms: _299  and  _301
REMARK  119  A    between atoms: _301  and  _302
REMARK  120  A    between atoms: _301  and  _304
REMARK  121  A    between atoms: _304  and  _305
REMARK  122  A    between atoms: _310  and  _311
REMARK  123  A    between atoms: _313  and  _315
REMARK  124  A    between atoms: _315  and  _316
REMARK  125  A    between atoms: _315  and  _318
REMARK  126  A    between atoms: _318  and  _319
REMARK  127  A    between atoms: _322  and  _324
REMARK  128  A    between atoms: _324  and  _325
REMARK  129  A    between atoms: _324  and  _327
REMARK  130  A    between atoms: _327  and  _328
REMARK  131  A    between atoms: _333  and  _335
REMARK  132  A    between atoms: _335  and  _336
REMARK  133  A    between atoms: _335  and  _338
REMARK  134  A    between atoms: _338  and  _339
REMARK  135  A    between atoms: _344  and  _346
REMARK  136  A    between atoms: _346  and  _347
REMARK  137  A    between atoms: _346  and  _349
REMARK  138  A    between atoms: _349  and  _350
REMARK  139  A    between atoms: _350  and  _351
REMARK  140  A    between atoms: _354  and  _356
REMARK  141  A    between atoms: _356  and  _357
REMARK  142  A    between atoms: _359  and  _361
REMARK  143  A    between atoms: _361  and  _362
REMARK  144  A    between atoms: _361  and  _364
REMARK  145  A    between atoms: _364  and  _365
REMARK  146  A    between atoms: _367  and  _369
REMARK  147  A    between atoms: _369  and  _370
REMARK  148  A    between atoms: _369  and  _372
REMARK  149  A    between atoms: _372  and  _373
REMARK  150  A    between atoms: _378  and  _379
REMARK  151  A    between atoms: _381  and  _383
REMARK  152  A    between atoms: _383  and  _384
REMARK  153  A    between atoms: _383  and  _386
REMARK  154  A    between atoms: _386  and  _387
REMARK  155  A    between atoms: _392  and  _394
REMARK  156  A    between atoms: _394  and  _395
REMARK  157  A    between atoms: _397  and  _399
REMARK  158  A    between atoms: _399  and  _400
REMARK  159  A    between atoms: _399  and  _402
REMARK  160  A    between atoms: _402  and  _403
REMARK  161  A    between atoms: _408  and  _410
REMARK  162  A    between atoms: _410  and  _411
REMARK  163  A    between atoms: _410  and  _413
REMARK  164  A    between atoms: _413  and  _414
REMARK  165  A    between atoms: _424  and  _426
REMARK  166  A    between atoms: _426  and  _427
REMARK  167  A    between atoms: _426  and  _429
REMARK  168  A    between atoms: _429  and  _430
REMARK  169  A    between atoms: _435  and  _437
REMARK  170  A    between atoms: _437  and  _438
REMARK  171  A    between atoms: _437  and  _440
REMARK  172  A    between atoms: _440  and  _441
REMARK  173  A    between atoms: _441  and  _442
REMARK  174  A    between atoms: _442  and  _443
REMARK  175  A    between atoms: _443  and  _444
REMARK  176  A    between atoms: _448  and  _450
REMARK  177  A    between atoms: _450  and  _451
REMARK  178  A    between atoms: _450  and  _453
REMARK  179  A    between atoms: _453  and  _454
REMARK  180  A    between atoms: _460  and  _462
REMARK  181  A    between atoms: _462  and  _463
REMARK  182  A    between atoms: _465  and  _467
REMARK  183  A    between atoms: _467  and  _468
REMARK  184  A    between atoms: _467  and  _470
REMARK  185  A    between atoms: _470  and  _471
REMARK  186  A    between atoms: _473  and  _475
REMARK  187  A    between atoms: _475  and  _476
REMARK  188  A    between atoms: _475  and  _478
REMARK  189  A    between atoms: _478  and  _479
REMARK  190  A    between atoms: _479  and  _480
REMARK  191  A    between atoms: _480  and  _481
REMARK  192  A    between atoms: _481  and  _482
REMARK  193  A    between atoms: _486  and  _488
REMARK  194  A    between atoms: _488  and  _489
REMARK  195  A    between atoms: _488  and  _491
REMARK  196  A    between atoms: _491  and  _492
REMARK  197  A    between atoms: _497  and  _499
REMARK  198  A    between atoms: _499  and  _500
REMARK  199  A    between atoms: _499  and  _502
REMARK  200  A    between atoms: _502  and  _503
REMARK  201  A    between atoms: _503  and  _504
REMARK  202  A    between atoms: _504  and  _505
REMARK  203  A    between atoms: _514  and  _516
REMARK  204  A    between atoms: _516  and  _517
REMARK  205  A    between atoms: _516  and  _519
REMARK  206  A    between atoms: _519  and  _520
REMARK  207  A    between atoms: _520  and  _521
REMARK  208  A    between atoms: _526  and  _528
REMARK  209  A    between atoms: _528  and  _529
REMARK  210  A    between atoms: _528  and  _531
REMARK  211  A    between atoms: _531  and  _532
REMARK  212  A    between atoms: _532  and  _533
REMARK  213  A    between atoms: _538  and  _540
REMARK  214  A    between atoms: _540  and  _541
REMARK  215  A    between atoms: _540  and  _543
REMARK  216  A    between atoms: _543  and  _544
REMARK  217  A    between atoms: _544  and  _545
REMARK  218  A    between atoms: _547  and  _549
REMARK  219  A    between atoms: _549  and  _550
REMARK  220  A    between atoms: _549  and  _552
REMARK  221  A    between atoms: _552  and  _553
REMARK  222  A    between atoms: _555  and  _557
REMARK  223  A    between atoms: _557  and  _558
REMARK  224  A    between atoms: _557  and  _560
REMARK  225  A    between atoms: _560  and  _561
REMARK  226  A    between atoms: _566  and  _567
REMARK  227  A    between atoms: _569  and  _571
REMARK  228  A    between atoms: _571  and  _572
REMARK  229  A    between atoms: _571  and  _574
REMARK  230  A    between atoms: _574  and  _575
REMARK  231  A    between atoms: _585  and  _587
REMARK  232  A    between atoms: _587  and  _588
REMARK  233  A    between atoms: _587  and  _590
REMARK  234  A    between atoms: _590  and  _591
REMARK  235  A    between atoms: _594  and  _596
REMARK  236  A    between atoms: _596  and  _597
REMARK  237  A    between atoms: _600  and  _602
REMARK  238  A    between atoms: _602  and  _603
REMARK  239  A    between atoms: _602  and  _605
REMARK  240  A    between atoms: _605  and  _606
REMARK                            x       y       z     vdW  Elec       q    Type
REMARK                         _______ _______ _______ _____ _____    ______ ____
ROOT
ATOM      1  O   HOH     1     -25.987  14.704  -0.552  0.00  0.00    +0.000 OA
ENDROOT
TORSDOF 0
REMARK  Name = ../refined-set-2016/4ua8/4ua8_pocket.pdb
REMARK  240 active torsions:
REMARK  status: ('A' for Active; 'I' for Inactive)
REMARK    1  A    between atoms: _1  and  _3
REMARK    2  A    between atoms: _3  and  _4
REMARK    3  A    between atoms: _7  and  _8
REMARK    4  A    between atoms: _13  and  _15
REMARK    5  A    between atoms: _15  and  _16
REMARK    6  A    between atoms: _19  and  _21
REMARK    7  A    between atoms: _21  and  _22
REMARK    8  A    between atoms: _21  and  _24
REMARK    9  A    between atoms: _24  and  _25
REMARK   10  A    between atoms: _25  and  _26
REMARK   11  A    between atoms: _29  and  _31
REMARK   12  A    between atoms: _31  and  _32
REMARK   13  A    between atoms: _31  and  _34
REMARK   14  A    between atoms: _34  and  _35
REMARK   15  A    between atoms: _38  and  _40
REMARK   16  A    between atoms: _40  and  _41
REMARK   17  A    between atoms: _40  and  _43
REMARK   18  A    between atoms: _43  and  _44
REMARK   19  A    between atoms: _46  and  _48
REMARK   20  A    between atoms: _48  and  _49
REMARK   21  A    between atoms: _48  and  _51
REMARK   22  A    between atoms: _51  and  _52
REMARK   23  A    between atoms: _54  and  _56
REMARK   24  A    between atoms: _56  and  _57
REMARK   25  A    between atoms: _56  and  _59
REMARK   26  A    between atoms: _59  and  _60
REMARK   27  A    between atoms: _60  and  _61
REMARK   28  A    between atoms: _64  and  _66
REMARK   29  A    between atoms: _66  and  _67
REMARK   30  A    between atoms: _66  and  _69
REMARK   31  A    between atoms: _69  and  _70
REMARK   32  A    between atoms: _72  and  _74
REMARK   33  A    between atoms: _74  and  _75
REMARK   34  A    between atoms: _74  and  _77
REMARK   35  A    between atoms: _77  and  _78
REMARK   36  A    between atoms: _81  and  _83
REMARK   37  A    between atoms: _83  and  _84
REMARK   38  A    between atoms: _87  and  _89
REMARK   39  A    between atoms: _89  and  _90
REMARK   40  A    between atoms: _89  and  _92
REMARK   41  A    between atoms: _92  and  _93
REMARK   42  A    between atoms: _93  and  _94
REMARK   43  A    between atoms: _94  and  _95
REMARK   44  A    between atoms: _95  and  _96
REMARK   45  A    between atoms: _100  and  _102
REMARK   46  A    between atoms: _102  and  _103
REMARK   47  A    between atoms: _102  and  _105
REMARK   48  A    between atoms: _105  and  _106
REMARK   49  A    between atoms: _109  and  _111
REMARK   50  A    between atoms: _111  and  _112
REMARK   51  A    between atoms: _111  and  _114
REMARK   52  A    between atoms: _114  and  _115
REMARK   53  A    between atoms: _115  and  _116
REMARK   54  A    between atoms: _118  and  _120
REMARK   55  A    between atoms: _120  and  _121
REMARK   56  A    between atoms: _120  and  _123
REMARK   57  A    between atoms: _123  and  _124
REMARK   58  A    between atoms: _130  and  _132
REMARK   59  A    between atoms: _132  and  _133
REMARK   60  A    between atoms: _136  and  _138
REMARK   61  A    between atoms: _138  and  _139
REMARK   62  A    between atoms: _138  and  _141
REMARK   63  A    between atoms: _141  and  _142
REMARK   64  A    between atoms: _147  and  _149
REMARK   65  A    between atoms: _149  and  _150
REMARK   66  A    between atoms: _149  and  _152
REMARK   67  A    between atoms: _152  and  _153
REMARK   68  A    between atoms: _156  and  _158
REMARK   69  A    between atoms: _158  and  _159
REMARK   70  A    between atoms: _158  and  _161
REMARK   71  A    between atoms: _161  and  _162
REMARK   72  A    between atoms: _162  and  _163
REMARK   73  A    between atoms: _168  and  _170
REMARK   74  A    between atoms: _170  and  _171
REMARK   75  A    between atoms: _170  and  _173
REMARK   76  A    between atoms: _173  and  _174
REMARK   77  A    between atoms: _178  and  _179
REMARK   78  A    between atoms: _184  and  _186
REMARK   79  A    between atoms: _186  and  _187
REMARK   80  A    between atoms: _186  and  _189
REMARK   81  A    between atoms: _189  and  _190
REMARK   82  A    between atoms: _195  and  _196
REMARK   83  A    between atoms: _198  and  _200
REMARK   84  A    between atoms: _200  and  _201
REMARK   85  A    between atoms: _200  and  _203
REMARK   86  A    between atoms: _203  and  _204
REMARK   87  A    between atoms: _207  and  _209
REMARK   88  A    between atoms: _209  and  _210
REMARK   89  A    between atoms: _209  and  _212
REMARK   90  A    between atoms: _212  and  _213
REMARK   91  A    between atoms: _215  and  _217
REMARK   92  A    between atoms: _217  and  _218
REMARK   93  A    between atoms: _217  and  _220
REMARK   94  A    between atoms: _220  and  _221
REMARK   95  A    between atoms: _226  and  _228
REMARK   96  A    between atoms: _228  and  _229
REMARK   97  A    between atoms: _228  and  _231
REMARK   98  A    between atoms: _231  and  _232
REMARK   99  A    between atoms: _235  and  _237
REMARK  100  A    between atoms: _237  and  _238
REMARK  101  A    between atoms: _237  and  _240
REMARK  102  A    between atoms: _240  and  _241
REMARK  103  A    between atoms: _252  and  _253
REMARK  104  A    between atoms: _258  and  _260
REMARK  105  A    between atoms: _260  and  _261
REMARK  106  A    between atoms: _260  and  _263
REMARK  107  A    between atoms: _263  and  _264
REMARK  108  A    between atoms: _267  and  _269
REMARK  109  A    between atoms: _269  and  _270
REMARK  110  A    between atoms: _269  and  _272
REMARK  111  A    between atoms: _272  and  _273
REMARK  112  A    between atoms: _278  and  _280
REMARK  113  A    between atoms: _280  and  _281
REMARK  114  A    between atoms: _283  and  _285
REMARK  115  A    between atoms: _285  and  _286
REMARK  116  A    between atoms: _285  and  _288
REMARK  117  A    between atoms: _288  and  _289
REMARK  118  A    between atoms: _299  and  _301
REMARK  119  A    between atoms: _301  and  _302
REMARK  120  A    between atoms: _301  and  _304
REMARK  121  A    between atoms: _304  and  _305
REMARK  122  A    between atoms: _310  and  _311
REMARK  123  A    between atoms: _313  and  _315
REMARK  124  A    between atoms: _315  and  _316
REMARK  125  A    between atoms: _315  and  _318
REMARK  126  A    between atoms: _318  and  _319
REMARK  127  A    between atoms: _322  and  _324
REMARK  128  A    between atoms: _324  and  _325
REMARK  129  A    between atoms: _324  and  _327
REMARK  130  A    between atoms: _327  and  _328
REMARK  131  A    between atoms: _333  and  _335
REMARK  132  A    between atoms: _335  and  _336
REMARK  133  A    between atoms: _335  and  _338
REMARK  134  A    between atoms: _338  and  _339
REMARK  135  A    between atoms: _344  and  _346
REMARK  136  A    between atoms: _346  and  _347
REMARK  137  A    between atoms: _346  and  _349
REMARK  138  A    between atoms: _349  and  _350
REMARK  139  A    between atoms: _350  and  _351
REMARK  140  A    between atoms: _354  and  _356
REMARK  141  A    between atoms: _356  and  _357
REMARK  142  A    between atoms: _359  and  _361
REMARK  143  A    between atoms: _361  and  _362
REMARK  144  A    between atoms: _361  and  _364
REMARK  145  A    between atoms: _364  and  _365
REMARK  146  A    between atoms: _367  and  _369
REMARK  147  A    between atoms: _369  and  _370
REMARK  148  A    between atoms: _369  and  _372
REMARK  149  A    between atoms: _372  and  _373
REMARK  150  A    between atoms: _378  and  _379
REMARK  151  A    between atoms: _381  and  _383
REMARK  152  A    between atoms: _383  and  _384
REMARK  153  A    between atoms: _383  and  _386
REMARK  154  A    between atoms: _386  and  _387
REMARK  155  A    between atoms: _392  and  _394
REMARK  156  A    between atoms: _394  and  _395
REMARK  157  A    between atoms: _397  and  _399
REMARK  158  A    between atoms: _399  and  _400
REMARK  159  A    between atoms: _399  and  _402
REMARK  160  A    between atoms: _402  and  _403
REMARK  161  A    between atoms: _408  and  _410
REMARK  162  A    between atoms: _410  and  _411
REMARK  163  A    between atoms: _410  and  _413
REMARK  164  A    between atoms: _413  and  _414
REMARK  165  A    between atoms: _424  and  _426
REMARK  166  A    between atoms: _426  and  _427
REMARK  167  A    between atoms: _426  and  _429
REMARK  168  A    between atoms: _429  and  _430
REMARK  169  A    between atoms: _435  and  _437
REMARK  170  A    between atoms: _437  and  _438
REMARK  171  A    between atoms: _437  and  _440
REMARK  172  A    between atoms: _440  and  _441
REMARK  173  A    between atoms: _441  and  _442
REMARK  174  A    between atoms: _442  and  _443
REMARK  175  A    between atoms: _443  and  _444
REMARK  176  A    between atoms: _448  and  _450
REMARK  177  A    between atoms: _450  and  _451
REMARK  178  A    between atoms: _450  and  _453
REMARK  179  A    between atoms: _453  and  _454
REMARK  180  A    between atoms: _460  and  _462
REMARK  181  A    between atoms: _462  and  _463
REMARK  182  A    between atoms: _465  and  _467
REMARK  183  A    between atoms: _467  and  _468
REMARK  184  A    between atoms: _467  and  _470
REMARK  185  A    between atoms: _470  and  _471
REMARK  186  A    between atoms: _473  and  _475
REMARK  187  A    between atoms: _475  and  _476
REMARK  188  A    between atoms: _475  and  _478
REMARK  189  A    between atoms: _478  and  _479
REMARK  190  A    between atoms: _479  and  _480
REMARK  191  A    between atoms: _480  and  _481
REMARK  192  A    between atoms: _481  and  _482
REMARK  193  A    between atoms: _486  and  _488
REMARK  194  A    between atoms: _488  and  _489
REMARK  195  A    between atoms: _488  and  _491
REMARK  196  A    between atoms: _491  and  _492
REMARK  197  A    between atoms: _497  and  _499
REMARK  198  A    between atoms: _499  and  _500
REMARK  199  A    between atoms: _499  and  _502
REMARK  200  A    between atoms: _502  and  _503
REMARK  201  A    between atoms: _503  and  _504
REMARK  202  A    between atoms: _504  and  _505
REMARK  203  A    between atoms: _514  and  _516
REMARK  204  A    between atoms: _516  and  _517
REMARK  205  A    between atoms: _516  and  _519
REMARK  206  A    between atoms: _519  and  _520
REMARK  207  A    between atoms: _520  and  _521
REMARK  208  A    between atoms: _526  and  _528
REMARK  209  A    between atoms: _528  and  _529
REMARK  210  A    between atoms: _528  and  _531
REMARK  211  A    between atoms: _531  and  _532
REMARK  212  A    between atoms: _532  and  _533
REMARK  213  A    between atoms: _538  and  _540
REMARK  214  A    between atoms: _540  and  _541
REMARK  215  A    between atoms: _540  and  _543
REMARK  216  A    between atoms: _543  and  _544
REMARK  217  A    between atoms: _544  and  _545
REMARK  218  A    between atoms: _547  and  _549
REMARK  219  A    between atoms: _549  and  _550
REMARK  220  A    between atoms: _549  and  _552
REMARK  221  A    between atoms: _552  and  _553
REMARK  222  A    between atoms: _555  and  _557
REMARK  223  A    between atoms: _557  and  _558
REMARK  224  A    between atoms: _557  and  _560
REMARK  225  A    between atoms: _560  and  _561
REMARK  226  A    between atoms: _566  and  _567
REMARK  227  A    between atoms: _569  and  _571
REMARK  228  A    between atoms: _571  and  _572
REMARK  229  A    between atoms: _571  and  _574
REMARK  230  A    between atoms: _574  and  _575
REMARK  231  A    between atoms: _585  and  _587
REMARK  232  A    between atoms: _587  and  _588
REMARK  233  A    between atoms: _587  and  _590
REMARK  234  A    between atoms: _590  and  _591
REMARK  235  A    between atoms: _594  and  _596
REMARK  236  A    between atoms: _596  and  _597
REMARK  237  A    between atoms: _600  and  _602
REMARK  238  A    between atoms: _602  and  _603
REMARK  239  A    between atoms: _602  and  _605
REMARK  240  A    between atoms: _605  and  _606
REMARK                            x       y       z     vdW  Elec       q    Type
REMARK                         _______ _______ _______ _____ _____    ______ ____
ROOT
ATOM      1  O   HOH     1     -19.928   5.938  -6.723  0.00  0.00    +0.000 OA
ENDROOT
TORSDOF 0
REMARK  Name = ../refined-set-2016/4ua8/4ua8_pocket.pdb
REMARK  240 active torsions:
REMARK  status: ('A' for Active; 'I' for Inactive)
REMARK    1  A    between atoms: _1  and  _3
REMARK    2  A    between atoms: _3  and  _4
REMARK    3  A    between atoms: _7  and  _8
REMARK    4  A    between atoms: _13  and  _15
REMARK    5  A    between atoms: _15  and  _16
REMARK    6  A    between atoms: _19  and  _21
REMARK    7  A    between atoms: _21  and  _22
REMARK    8  A    between atoms: _21  and  _24
REMARK    9  A    between atoms: _24  and  _25
REMARK   10  A    between atoms: _25  and  _26
REMARK   11  A    between atoms: _29  and  _31
REMARK   12  A    between atoms: _31  and  _32
REMARK   13  A    between atoms: _31  and  _34
REMARK   14  A    between atoms: _34  and  _35
REMARK   15  A    between atoms: _38  and  _40
REMARK   16  A    between atoms: _40  and  _41
REMARK   17  A    between atoms: _40  and  _43
REMARK   18  A    between atoms: _43  and  _44
REMARK   19  A    between atoms: _46  and  _48
REMARK   20  A    between atoms: _48  and  _49
REMARK   21  A    between atoms: _48  and  _51
REMARK   22  A    between atoms: _51  and  _52
REMARK   23  A    between atoms: _54  and  _56
REMARK   24  A    between atoms: _56  and  _57
REMARK   25  A    between atoms: _56  and  _59
REMARK   26  A    between atoms: _59  and  _60
REMARK   27  A    between atoms: _60  and  _61
REMARK   28  A    between atoms: _64  and  _66
REMARK   29  A    between atoms: _66  and  _67
REMARK   30  A    between atoms: _66  and  _69
REMARK   31  A    between atoms: _69  and  _70
REMARK   32  A    between atoms: _72  and  _74
REMARK   33  A    between atoms: _74  and  _75
REMARK   34  A    between atoms: _74  and  _77
REMARK   35  A    between atoms: _77  and  _78
REMARK   36  A    between atoms: _81  and  _83
REMARK   37  A    between atoms: _83  and  _84
REMARK   38  A    between atoms: _87  and  _89
REMARK   39  A    between atoms: _89  and  _90
REMARK   40  A    between atoms: _89  and  _92
REMARK   41  A    between atoms: _92  and  _93
REMARK   42  A    between atoms: _93  and  _94
REMARK   43  A    between atoms: _94  and  _95
REMARK   44  A    between atoms: _95  and  _96
REMARK   45  A    between atoms: _100  and  _102
REMARK   46  A    between atoms: _102  and  _103
REMARK   47  A    between atoms: _102  and  _105
REMARK   48  A    between atoms: _105  and  _106
REMARK   49  A    between atoms: _109  and  _111
REMARK   50  A    between atoms: _111  and  _112
REMARK   51  A    between atoms: _111  and  _114
REMARK   52  A    between atoms: _114  and  _115
REMARK   53  A    between atoms: _115  and  _116
REMARK   54  A    between atoms: _118  and  _120
REMARK   55  A    between atoms: _120  and  _121
REMARK   56  A    between atoms: _120  and  _123
REMARK   57  A    between atoms: _123  and  _124
REMARK   58  A    between atoms: _130  and  _132
REMARK   59  A    between atoms: _132  and  _133
REMARK   60  A    between atoms: _136  and  _138
REMARK   61  A    between atoms: _138  and  _139
REMARK   62  A    between atoms: _138  and  _141
REMARK   63  A    between atoms: _141  and  _142
REMARK   64  A    between atoms: _147  and  _149
REMARK   65  A    between atoms: _149  and  _150
REMARK   66  A    between atoms: _149  and  _152
REMARK   67  A    between atoms: _152  and  _153
REMARK   68  A    between atoms: _156  and  _158
REMARK   69  A    between atoms: _158  and  _159
REMARK   70  A    between atoms: _158  and  _161
REMARK   71  A    between atoms: _161  and  _162
REMARK   72  A    between atoms: _162  and  _163
REMARK   73  A    between atoms: _168  and  _170
REMARK   74  A    between atoms: _170  and  _171
REMARK   75  A    between atoms: _170  and  _173
REMARK   76  A    between atoms: _173  and  _174
REMARK   77  A    between atoms: _178  and  _179
REMARK   78  A    between atoms: _184  and  _186
REMARK   79  A    between atoms: _186  and  _187
REMARK   80  A    between atoms: _186  and  _189
REMARK   81  A    between atoms: _189  and  _190
REMARK   82  A    between atoms: _195  and  _196
REMARK   83  A    between atoms: _198  and  _200
REMARK   84  A    between atoms: _200  and  _201
REMARK   85  A    between atoms: _200  and  _203
REMARK   86  A    between atoms: _203  and  _204
REMARK   87  A    between atoms: _207  and  _209
REMARK   88  A    between atoms: _209  and  _210
REMARK   89  A    between atoms: _209  and  _212
REMARK   90  A    between atoms: _212  and  _213
REMARK   91  A    between atoms: _215  and  _217
REMARK   92  A    between atoms: _217  and  _218
REMARK   93  A    between atoms: _217  and  _220
REMARK   94  A    between atoms: _220  and  _221
REMARK   95  A    between atoms: _226  and  _228
REMARK   96  A    between atoms: _228  and  _229
REMARK   97  A    between atoms: _228  and  _231
REMARK   98  A    between atoms: _231  and  _232
REMARK   99  A    between atoms: _235  and  _237
REMARK  100  A    between atoms: _237  and  _238
REMARK  101  A    between atoms: _237  and  _240
REMARK  102  A    between atoms: _240  and  _241
REMARK  103  A    between atoms: _252  and  _253
REMARK  104  A    between atoms: _258  and  _260
REMARK  105  A    between atoms: _260  and  _261
REMARK  106  A    between atoms: _260  and  _263
REMARK  107  A    between atoms: _263  and  _264
REMARK  108  A    between atoms: _267  and  _269
REMARK  109  A    between atoms: _269  and  _270
REMARK  110  A    between atoms: _269  and  _272
REMARK  111  A    between atoms: _272  and  _273
REMARK  112  A    between atoms: _278  and  _280
REMARK  113  A    between atoms: _280  and  _281
REMARK  114  A    between atoms: _283  and  _285
REMARK  115  A    between atoms: _285  and  _286
REMARK  116  A    between atoms: _285  and  _288
REMARK  117  A    between atoms: _288  and  _289
REMARK  118  A    between atoms: _299  and  _301
REMARK  119  A    between atoms: _301  and  _302
REMARK  120  A    between atoms: _301  and  _304
REMARK  121  A    between atoms: _304  and  _305
REMARK  122  A    between atoms: _310  and  _311
REMARK  123  A    between atoms: _313  and  _315
REMARK  124  A    between atoms: _315  and  _316
REMARK  125  A    between atoms: _315  and  _318
REMARK  126  A    between atoms: _318  and  _319
REMARK  127  A    between atoms: _322  and  _324
REMARK  128  A    between atoms: _324  and  _325
REMARK  129  A    between atoms: _324  and  _327
REMARK  130  A    between atoms: _327  and  _328
REMARK  131  A    between atoms: _333  and  _335
REMARK  132  A    between atoms: _335  and  _336
REMARK  133  A    between atoms: _335  and  _338
REMARK  134  A    between atoms: _338  and  _339
REMARK  135  A    between atoms: _344  and  _346
REMARK  136  A    between atoms: _346  and  _347
REMARK  137  A    between atoms: _346  and  _349
REMARK  138  A    between atoms: _349  and  _350
REMARK  139  A    between atoms: _350  and  _351
REMARK  140  A    between atoms: _354  and  _356
REMARK  141  A    between atoms: _356  and  _357
REMARK  142  A    between atoms: _359  and  _361
REMARK  143  A    between atoms: _361  and  _362
REMARK  144  A    between atoms: _361  and  _364
REMARK  145  A    between atoms: _364  and  _365
REMARK  146  A    between atoms: _367  and  _369
REMARK  147  A    between atoms: _369  and  _370
REMARK  148  A    between atoms: _369  and  _372
REMARK  149  A    between atoms: _372  and  _373
REMARK  150  A    between atoms: _378  and  _379
REMARK  151  A    between atoms: _381  and  _383
REMARK  152  A    between atoms: _383  and  _384
REMARK  153  A    between atoms: _383  and  _386
REMARK  154  A    between atoms: _386  and  _387
REMARK  155  A    between atoms: _392  and  _394
REMARK  156  A    between atoms: _394  and  _395
REMARK  157  A    between atoms: _397  and  _399
REMARK  158  A    between atoms: _399  and  _400
REMARK  159  A    between atoms: _399  and  _402
REMARK  160  A    between atoms: _402  and  _403
REMARK  161  A    between atoms: _408  and  _410
REMARK  162  A    between atoms: _410  and  _411
REMARK  163  A    between atoms: _410  and  _413
REMARK  164  A    between atoms: _413  and  _414
REMARK  165  A    between atoms: _424  and  _426
REMARK  166  A    between atoms: _426  and  _427
REMARK  167  A    between atoms: _426  and  _429
REMARK  168  A    between atoms: _429  and  _430
REMARK  169  A    between atoms: _435  and  _437
REMARK  170  A    between atoms: _437  and  _438
REMARK  171  A    between atoms: _437  and  _440
REMARK  172  A    between atoms: _440  and  _441
REMARK  173  A    between atoms: _441  and  _442
REMARK  174  A    between atoms: _442  and  _443
REMARK  175  A    between atoms: _443  and  _444
REMARK  176  A    between atoms: _448  and  _450
REMARK  177  A    between atoms: _450  and  _451
REMARK  178  A    between atoms: _450  and  _453
REMARK  179  A    between atoms: _453  and  _454
REMARK  180  A    between atoms: _460  and  _462
REMARK  181  A    between atoms: _462  and  _463
REMARK  182  A    between atoms: _465  and  _467
REMARK  183  A    between atoms: _467  and  _468
REMARK  184  A    between atoms: _467  and  _470
REMARK  185  A    between atoms: _470  and  _471
REMARK  186  A    between atoms: _473  and  _475
REMARK  187  A    between atoms: _475  and  _476
REMARK  188  A    between atoms: _475  and  _478
REMARK  189  A    between atoms: _478  and  _479
REMARK  190  A    between atoms: _479  and  _480
REMARK  191  A    between atoms: _480  and  _481
REMARK  192  A    between atoms: _481  and  _482
REMARK  193  A    between atoms: _486  and  _488
REMARK  194  A    between atoms: _488  and  _489
REMARK  195  A    between atoms: _488  and  _491
REMARK  196  A    between atoms: _491  and  _492
REMARK  197  A    between atoms: _497  and  _499
REMARK  198  A    between atoms: _499  and  _500
REMARK  199  A    between atoms: _499  and  _502
REMARK  200  A    between atoms: _502  and  _503
REMARK  201  A    between atoms: _503  and  _504
REMARK  202  A    between atoms: _504  and  _505
REMARK  203  A    between atoms: _514  and  _516
REMARK  204  A    between atoms: _516  and  _517
REMARK  205  A    between atoms: _516  and  _519
REMARK  206  A    between atoms: _519  and  _520
REMARK  207  A    between atoms: _520  and  _521
REMARK  208  A    between atoms: _526  and  _528
REMARK  209  A    between atoms: _528  and  _529
REMARK  210  A    between atoms: _528  and  _531
REMARK  211  A    between atoms: _531  and  _532
REMARK  212  A    between atoms: _532  and  _533
REMARK  213  A    between atoms: _538  and  _540
REMARK  214  A    between atoms: _540  and  _541
REMARK  215  A    between atoms: _540  and  _543
REMARK  216  A    between atoms: _543  and  _544
REMARK  217  A    between atoms: _544  and  _545
REMARK  218  A    between atoms: _547  and  _549
REMARK  219  A    between atoms: _549  and  _550
REMARK  220  A    between atoms: _549  and  _552
REMARK  221  A    between atoms: _552  and  _553
REMARK  222  A    between atoms: _555  and  _557
REMARK  223  A    between atoms: _557  and  _558
REMARK  224  A    between atoms: _557  and  _560
REMARK  225  A    between atoms: _560  and  _561
REMARK  226  A    between atoms: _566  and  _567
REMARK  227  A    between atoms: _569  and  _571
REMARK  228  A    between atoms: _571  and  _572
REMARK  229  A    between atoms: _571  and  _574
REMARK  230  A    between atoms: _574  and  _575
REMARK  231  A    between atoms: _585  and  _587
REMARK  232  A    between atoms: _587  and  _588
REMARK  233  A    between atoms: _587  and  _590
REMARK  234  A    between atoms: _590  and  _591
REMARK  235  A    between atoms: _594  and  _596
REMARK  236  A    between atoms: _596  and  _597
REMARK  237  A    between atoms: _600  and  _602
REMARK  238  A    between atoms: _602  and  _603
REMARK  239  A    between atoms: _602  and  _605
REMARK  240  A    between atoms: _605  and  _606
REMARK                            x       y       z     vdW  Elec       q    Type
REMARK                         _______ _______ _______ _____ _____    ______ ____
ROOT
ATOM      1  O   HOH     1     -28.355  -0.399 -10.290  0.00  0.00    +0.000 OA
ENDROOT
TORSDOF 0
REMARK  Name = ../refined-set-2016/4ua8/4ua8_pocket.pdb
REMARK  240 active torsions:
REMARK  status: ('A' for Active; 'I' for Inactive)
REMARK    1  A    between atoms: _1  and  _3
REMARK    2  A    between atoms: _3  and  _4
REMARK    3  A    between atoms: _7  and  _8
REMARK    4  A    between atoms: _13  and  _15
REMARK    5  A    between atoms: _15  and  _16
REMARK    6  A    between atoms: _19  and  _21
REMARK    7  A    between atoms: _21  and  _22
REMARK    8  A    between atoms: _21  and  _24
REMARK    9  A    between atoms: _24  and  _25
REMARK   10  A    between atoms: _25  and  _26
REMARK   11  A    between atoms: _29  and  _31
REMARK   12  A    between atoms: _31  and  _32
REMARK   13  A    between atoms: _31  and  _34
REMARK   14  A    between atoms: _34  and  _35
REMARK   15  A    between atoms: _38  and  _40
REMARK   16  A    between atoms: _40  and  _41
REMARK   17  A    between atoms: _40  and  _43
REMARK   18  A    between atoms: _43  and  _44
REMARK   19  A    between atoms: _46  and  _48
REMARK   20  A    between atoms: _48  and  _49
REMARK   21  A    between atoms: _48  and  _51
REMARK   22  A    between atoms: _51  and  _52
REMARK   23  A    between atoms: _54  and  _56
REMARK   24  A    between atoms: _56  and  _57
REMARK   25  A    between atoms: _56  and  _59
REMARK   26  A    between atoms: _59  and  _60
REMARK   27  A    between atoms: _60  and  _61
REMARK   28  A    between atoms: _64  and  _66
REMARK   29  A    between atoms: _66  and  _67
REMARK   30  A    between atoms: _66  and  _69
REMARK   31  A    between atoms: _69  and  _70
REMARK   32  A    between atoms: _72  and  _74
REMARK   33  A    between atoms: _74  and  _75
REMARK   34  A    between atoms: _74  and  _77
REMARK   35  A    between atoms: _77  and  _78
REMARK   36  A    between atoms: _81  and  _83
REMARK   37  A    between atoms: _83  and  _84
REMARK   38  A    between atoms: _87  and  _89
REMARK   39  A    between atoms: _89  and  _90
REMARK   40  A    between atoms: _89  and  _92
REMARK   41  A    between atoms: _92  and  _93
REMARK   42  A    between atoms: _93  and  _94
REMARK   43  A    between atoms: _94  and  _95
REMARK   44  A    between atoms: _95  and  _96
REMARK   45  A    between atoms: _100  and  _102
REMARK   46  A    between atoms: _102  and  _103
REMARK   47  A    between atoms: _102  and  _105
REMARK   48  A    between atoms: _105  and  _106
REMARK   49  A    between atoms: _109  and  _111
REMARK   50  A    between atoms: _111  and  _112
REMARK   51  A    between atoms: _111  and  _114
REMARK   52  A    between atoms: _114  and  _115
REMARK   53  A    between atoms: _115  and  _116
REMARK   54  A    between atoms: _118  and  _120
REMARK   55  A    between atoms: _120  and  _121
REMARK   56  A    between atoms: _120  and  _123
REMARK   57  A    between atoms: _123  and  _124
REMARK   58  A    between atoms: _130  and  _132
REMARK   59  A    between atoms: _132  and  _133
REMARK   60  A    between atoms: _136  and  _138
REMARK   61  A    between atoms: _138  and  _139
REMARK   62  A    between atoms: _138  and  _141
REMARK   63  A    between atoms: _141  and  _142
REMARK   64  A    between atoms: _147  and  _149
REMARK   65  A    between atoms: _149  and  _150
REMARK   66  A    between atoms: _149  and  _152
REMARK   67  A    between atoms: _152  and  _153
REMARK   68  A    between atoms: _156  and  _158
REMARK   69  A    between atoms: _158  and  _159
REMARK   70  A    between atoms: _158  and  _161
REMARK   71  A    between atoms: _161  and  _162
REMARK   72  A    between atoms: _162  and  _163
REMARK   73  A    between atoms: _168  and  _170
REMARK   74  A    between atoms: _170  and  _171
REMARK   75  A    between atoms: _170  and  _173
REMARK   76  A    between atoms: _173  and  _174
REMARK   77  A    between atoms: _178  and  _179
REMARK   78  A    between atoms: _184  and  _186
REMARK   79  A    between atoms: _186  and  _187
REMARK   80  A    between atoms: _186  and  _189
REMARK   81  A    between atoms: _189  and  _190
REMARK   82  A    between atoms: _195  and  _196
REMARK   83  A    between atoms: _198  and  _200
REMARK   84  A    between atoms: _200  and  _201
REMARK   85  A    between atoms: _200  and  _203
REMARK   86  A    between atoms: _203  and  _204
REMARK   87  A    between atoms: _207  and  _209
REMARK   88  A    between atoms: _209  and  _210
REMARK   89  A    between atoms: _209  and  _212
REMARK   90  A    between atoms: _212  and  _213
REMARK   91  A    between atoms: _215  and  _217
REMARK   92  A    between atoms: _217  and  _218
REMARK   93  A    between atoms: _217  and  _220
REMARK   94  A    between atoms: _220  and  _221
REMARK   95  A    between atoms: _226  and  _228
REMARK   96  A    between atoms: _228  and  _229
REMARK   97  A    between atoms: _228  and  _231
REMARK   98  A    between atoms: _231  and  _232
REMARK   99  A    between atoms: _235  and  _237
REMARK  100  A    between atoms: _237  and  _238
REMARK  101  A    between atoms: _237  and  _240
REMARK  102  A    between atoms: _240  and  _241
REMARK  103  A    between atoms: _252  and  _253
REMARK  104  A    between atoms: _258  and  _260
REMARK  105  A    between atoms: _260  and  _261
REMARK  106  A    between atoms: _260  and  _263
REMARK  107  A    between atoms: _263  and  _264
REMARK  108  A    between atoms: _267  and  _269
REMARK  109  A    between atoms: _269  and  _270
REMARK  110  A    between atoms: _269  and  _272
REMARK  111  A    between atoms: _272  and  _273
REMARK  112  A    between atoms: _278  and  _280
REMARK  113  A    between atoms: _280  and  _281
REMARK  114  A    between atoms: _283  and  _285
REMARK  115  A    between atoms: _285  and  _286
REMARK  116  A    between atoms: _285  and  _288
REMARK  117  A    between atoms: _288  and  _289
REMARK  118  A    between atoms: _299  and  _301
REMARK  119  A    between atoms: _301  and  _302
REMARK  120  A    between atoms: _301  and  _304
REMARK  121  A    between atoms: _304  and  _305
REMARK  122  A    between atoms: _310  and  _311
REMARK  123  A    between atoms: _313  and  _315
REMARK  124  A    between atoms: _315  and  _316
REMARK  125  A    between atoms: _315  and  _318
REMARK  126  A    between atoms: _318  and  _319
REMARK  127  A    between atoms: _322  and  _324
REMARK  128  A    between atoms: _324  and  _325
REMARK  129  A    between atoms: _324  and  _327
REMARK  130  A    between atoms: _327  and  _328
REMARK  131  A    between atoms: _333  and  _335
REMARK  132  A    between atoms: _335  and  _336
REMARK  133  A    between atoms: _335  and  _338
REMARK  134  A    between atoms: _338  and  _339
REMARK  135  A    between atoms: _344  and  _346
REMARK  136  A    between atoms: _346  and  _347
REMARK  137  A    between atoms: _346  and  _349
REMARK  138  A    between atoms: _349  and  _350
REMARK  139  A    between atoms: _350  and  _351
REMARK  140  A    between atoms: _354  and  _356
REMARK  141  A    between atoms: _356  and  _357
REMARK  142  A    between atoms: _359  and  _361
REMARK  143  A    between atoms: _361  and  _362
REMARK  144  A    between atoms: _361  and  _364
REMARK  145  A    between atoms: _364  and  _365
REMARK  146  A    between atoms: _367  and  _369
REMARK  147  A    between atoms: _369  and  _370
REMARK  148  A    between atoms: _369  and  _372
REMARK  149  A    between atoms: _372  and  _373
REMARK  150  A    between atoms: _378  and  _379
REMARK  151  A    between atoms: _381  and  _383
REMARK  152  A    between atoms: _383  and  _384
REMARK  153  A    between atoms: _383  and  _386
REMARK  154  A    between atoms: _386  and  _387
REMARK  155  A    between atoms: _392  and  _394
REMARK  156  A    between atoms: _394  and  _395
REMARK  157  A    between atoms: _397  and  _399
REMARK  158  A    between atoms: _399  and  _400
REMARK  159  A    between atoms: _399  and  _402
REMARK  160  A    between atoms: _402  and  _403
REMARK  161  A    between atoms: _408  and  _410
REMARK  162  A    between atoms: _410  and  _411
REMARK  163  A    between atoms: _410  and  _413
REMARK  164  A    between atoms: _413  and  _414
REMARK  165  A    between atoms: _424  and  _426
REMARK  166  A    between atoms: _426  and  _427
REMARK  167  A    between atoms: _426  and  _429
REMARK  168  A    between atoms: _429  and  _430
REMARK  169  A    between atoms: _435  and  _437
REMARK  170  A    between atoms: _437  and  _438
REMARK  171  A    between atoms: _437  and  _440
REMARK  172  A    between atoms: _440  and  _441
REMARK  173  A    between atoms: _441  and  _442
REMARK  174  A    between atoms: _442  and  _443
REMARK  175  A    between atoms: _443  and  _444
REMARK  176  A    between atoms: _448  and  _450
REMARK  177  A    between atoms: _450  and  _451
REMARK  178  A    between atoms: _450  and  _453
REMARK  179  A    between atoms: _453  and  _454
REMARK  180  A    between atoms: _460  and  _462
REMARK  181  A    between atoms: _462  and  _463
REMARK  182  A    between atoms: _465  and  _467
REMARK  183  A    between atoms: _467  and  _468
REMARK  184  A    between atoms: _467  and  _470
REMARK  185  A    between atoms: _470  and  _471
REMARK  186  A    between atoms: _473  and  _475
REMARK  187  A    between atoms: _475  and  _476
REMARK  188  A    between atoms: _475  and  _478
REMARK  189  A    between atoms: _478  and  _479
REMARK  190  A    between atoms: _479  and  _480
REMARK  191  A    between atoms: _480  and  _481
REMARK  192  A    between atoms: _481  and  _482
REMARK  193  A    between atoms: _486  and  _488
REMARK  194  A    between atoms: _488  and  _489
REMARK  195  A    between atoms: _488  and  _491
REMARK  196  A    between atoms: _491  and  _492
REMARK  197  A    between atoms: _497  and  _499
REMARK  198  A    between atoms: _499  and  _500
REMARK  199  A    between atoms: _499  and  _502
REMARK  200  A    between atoms: _502  and  _503
REMARK  201  A    between atoms: _503  and  _504
REMARK  202  A    between atoms: _504  and  _505
REMARK  203  A    between atoms: _514  and  _516
REMARK  204  A    between atoms: _516  and  _517
REMARK  205  A    between atoms: _516  and  _519
REMARK  206  A    between atoms: _519  and  _520
REMARK  207  A    between atoms: _520  and  _521
REMARK  208  A    between atoms: _526  and  _528
REMARK  209  A    between atoms: _528  and  _529
REMARK  210  A    between atoms: _528  and  _531
REMARK  211  A    between atoms: _531  and  _532
REMARK  212  A    between atoms: _532  and  _533
REMARK  213  A    between atoms: _538  and  _540
REMARK  214  A    between atoms: _540  and  _541
REMARK  215  A    between atoms: _540  and  _543
REMARK  216  A    between atoms: _543  and  _544
REMARK  217  A    between atoms: _544  and  _545
REMARK  218  A    between atoms: _547  and  _549
REMARK  219  A    between atoms: _549  and  _550
REMARK  220  A    between atoms: _549  and  _552
REMARK  221  A    between atoms: _552  and  _553
REMARK  222  A    between atoms: _555  and  _557
REMARK  223  A    between atoms: _557  and  _558
REMARK  224  A    between atoms: _557  and  _560
REMARK  225  A    between atoms: _560  and  _561
REMARK  226  A    between atoms: _566  and  _567
REMARK  227  A    between atoms: _569  and  _571
REMARK  228  A    between atoms: _571  and  _572
REMARK  229  A    between atoms: _571  and  _574
REMARK  230  A    between atoms: _574  and  _575
REMARK  231  A    between atoms: _585  and  _587
REMARK  232  A    between atoms: _587  and  _588
REMARK  233  A    between atoms: _587  and  _590
REMARK  234  A    between atoms: _590  and  _591
REMARK  235  A    between atoms: _594  and  _596
REMARK  236  A    between atoms: _596  and  _597
REMARK  237  A    between atoms: _600  and  _602
REMARK  238  A    between atoms: _602  and  _603
REMARK  239  A    between atoms: _602  and  _605
REMARK  240  A    between atoms: _605  and  _606
REMARK                            x       y       z     vdW  Elec       q    Type
REMARK                         _______ _______ _______ _____ _____    ______ ____
ROOT
ATOM      1  O   HOH     1     -36.824   9.679 -11.065  0.00  0.00    +0.000 OA
ENDROOT
TORSDOF 0
REMARK  Name = ../refined-set-2016/4ua8/4ua8_pocket.pdb
REMARK  240 active torsions:
REMARK  status: ('A' for Active; 'I' for Inactive)
REMARK    1  A    between atoms: _1  and  _3
REMARK    2  A    between atoms: _3  and  _4
REMARK    3  A    between atoms: _7  and  _8
REMARK    4  A    between atoms: _13  and  _15
REMARK    5  A    between atoms: _15  and  _16
REMARK    6  A    between atoms: _19  and  _21
REMARK    7  A    between atoms: _21  and  _22
REMARK    8  A    between atoms: _21  and  _24
REMARK    9  A    between atoms: _24  and  _25
REMARK   10  A    between atoms: _25  and  _26
REMARK   11  A    between atoms: _29  and  _31
REMARK   12  A    between atoms: _31  and  _32
REMARK   13  A    between atoms: _31  and  _34
REMARK   14  A    between atoms: _34  and  _35
REMARK   15  A    between atoms: _38  and  _40
REMARK   16  A    between atoms: _40  and  _41
REMARK   17  A    between atoms: _40  and  _43
REMARK   18  A    between atoms: _43  and  _44
REMARK   19  A    between atoms: _46  and  _48
REMARK   20  A    between atoms: _48  and  _49
REMARK   21  A    between atoms: _48  and  _51
REMARK   22  A    between atoms: _51  and  _52
REMARK   23  A    between atoms: _54  and  _56
REMARK   24  A    between atoms: _56  and  _57
REMARK   25  A    between atoms: _56  and  _59
REMARK   26  A    between atoms: _59  and  _60
REMARK   27  A    between atoms: _60  and  _61
REMARK   28  A    between atoms: _64  and  _66
REMARK   29  A    between atoms: _66  and  _67
REMARK   30  A    between atoms: _66  and  _69
REMARK   31  A    between atoms: _69  and  _70
REMARK   32  A    between atoms: _72  and  _74
REMARK   33  A    between atoms: _74  and  _75
REMARK   34  A    between atoms: _74  and  _77
REMARK   35  A    between atoms: _77  and  _78
REMARK   36  A    between atoms: _81  and  _83
REMARK   37  A    between atoms: _83  and  _84
REMARK   38  A    between atoms: _87  and  _89
REMARK   39  A    between atoms: _89  and  _90
REMARK   40  A    between atoms: _89  and  _92
REMARK   41  A    between atoms: _92  and  _93
REMARK   42  A    between atoms: _93  and  _94
REMARK   43  A    between atoms: _94  and  _95
REMARK   44  A    between atoms: _95  and  _96
REMARK   45  A    between atoms: _100  and  _102
REMARK   46  A    between atoms: _102  and  _103
REMARK   47  A    between atoms: _102  and  _105
REMARK   48  A    between atoms: _105  and  _106
REMARK   49  A    between atoms: _109  and  _111
REMARK   50  A    between atoms: _111  and  _112
REMARK   51  A    between atoms: _111  and  _114
REMARK   52  A    between atoms: _114  and  _115
REMARK   53  A    between atoms: _115  and  _116
REMARK   54  A    between atoms: _118  and  _120
REMARK   55  A    between atoms: _120  and  _121
REMARK   56  A    between atoms: _120  and  _123
REMARK   57  A    between atoms: _123  and  _124
REMARK   58  A    between atoms: _130  and  _132
REMARK   59  A    between atoms: _132  and  _133
REMARK   60  A    between atoms: _136  and  _138
REMARK   61  A    between atoms: _138  and  _139
REMARK   62  A    between atoms: _138  and  _141
REMARK   63  A    between atoms: _141  and  _142
REMARK   64  A    between atoms: _147  and  _149
REMARK   65  A    between atoms: _149  and  _150
REMARK   66  A    between atoms: _149  and  _152
REMARK   67  A    between atoms: _152  and  _153
REMARK   68  A    between atoms: _156  and  _158
REMARK   69  A    between atoms: _158  and  _159
REMARK   70  A    between atoms: _158  and  _161
REMARK   71  A    between atoms: _161  and  _162
REMARK   72  A    between atoms: _162  and  _163
REMARK   73  A    between atoms: _168  and  _170
REMARK   74  A    between atoms: _170  and  _171
REMARK   75  A    between atoms: _170  and  _173
REMARK   76  A    between atoms: _173  and  _174
REMARK   77  A    between atoms: _178  and  _179
REMARK   78  A    between atoms: _184  and  _186
REMARK   79  A    between atoms: _186  and  _187
REMARK   80  A    between atoms: _186  and  _189
REMARK   81  A    between atoms: _189  and  _190
REMARK   82  A    between atoms: _195  and  _196
REMARK   83  A    between atoms: _198  and  _200
REMARK   84  A    between atoms: _200  and  _201
REMARK   85  A    between atoms: _200  and  _203
REMARK   86  A    between atoms: _203  and  _204
REMARK   87  A    between atoms: _207  and  _209
REMARK   88  A    between atoms: _209  and  _210
REMARK   89  A    between atoms: _209  and  _212
REMARK   90  A    between atoms: _212  and  _213
REMARK   91  A    between atoms: _215  and  _217
REMARK   92  A    between atoms: _217  and  _218
REMARK   93  A    between atoms: _217  and  _220
REMARK   94  A    between atoms: _220  and  _221
REMARK   95  A    between atoms: _226  and  _228
REMARK   96  A    between atoms: _228  and  _229
REMARK   97  A    between atoms: _228  and  _231
REMARK   98  A    between atoms: _231  and  _232
REMARK   99  A    between atoms: _235  and  _237
REMARK  100  A    between atoms: _237  and  _238
REMARK  101  A    between atoms: _237  and  _240
REMARK  102  A    between atoms: _240  and  _241
REMARK  103  A    between atoms: _252  and  _253
REMARK  104  A    between atoms: _258  and  _260
REMARK  105  A    between atoms: _260  and  _261
REMARK  106  A    between atoms: _260  and  _263
REMARK  107  A    between atoms: _263  and  _264
REMARK  108  A    between atoms: _267  and  _269
REMARK  109  A    between atoms: _269  and  _270
REMARK  110  A    between atoms: _269  and  _272
REMARK  111  A    between atoms: _272  and  _273
REMARK  112  A    between atoms: _278  and  _280
REMARK  113  A    between atoms: _280  and  _281
REMARK  114  A    between atoms: _283  and  _285
REMARK  115  A    between atoms: _285  and  _286
REMARK  116  A    between atoms: _285  and  _288
REMARK  117  A    between atoms: _288  and  _289
REMARK  118  A    between atoms: _299  and  _301
REMARK  119  A    between atoms: _301  and  _302
REMARK  120  A    between atoms: _301  and  _304
REMARK  121  A    between atoms: _304  and  _305
REMARK  122  A    between atoms: _310  and  _311
REMARK  123  A    between atoms: _313  and  _315
REMARK  124  A    between atoms: _315  and  _316
REMARK  125  A    between atoms: _315  and  _318
REMARK  126  A    between atoms: _318  and  _319
REMARK  127  A    between atoms: _322  and  _324
REMARK  128  A    between atoms: _324  and  _325
REMARK  129  A    between atoms: _324  and  _327
REMARK  130  A    between atoms: _327  and  _328
REMARK  131  A    between atoms: _333  and  _335
REMARK  132  A    between atoms: _335  and  _336
REMARK  133  A    between atoms: _335  and  _338
REMARK  134  A    between atoms: _338  and  _339
REMARK  135  A    between atoms: _344  and  _346
REMARK  136  A    between atoms: _346  and  _347
REMARK  137  A    between atoms: _346  and  _349
REMARK  138  A    between atoms: _349  and  _350
REMARK  139  A    between atoms: _350  and  _351
REMARK  140  A    between atoms: _354  and  _356
REMARK  141  A    between atoms: _356  and  _357
REMARK  142  A    between atoms: _359  and  _361
REMARK  143  A    between atoms: _361  and  _362
REMARK  144  A    between atoms: _361  and  _364
REMARK  145  A    between atoms: _364  and  _365
REMARK  146  A    between atoms: _367  and  _369
REMARK  147  A    between atoms: _369  and  _370
REMARK  148  A    between atoms: _369  and  _372
REMARK  149  A    between atoms: _372  and  _373
REMARK  150  A    between atoms: _378  and  _379
REMARK  151  A    between atoms: _381  and  _383
REMARK  152  A    between atoms: _383  and  _384
REMARK  153  A    between atoms: _383  and  _386
REMARK  154  A    between atoms: _386  and  _387
REMARK  155  A    between atoms: _392  and  _394
REMARK  156  A    between atoms: _394  and  _395
REMARK  157  A    between atoms: _397  and  _399
REMARK  158  A    between atoms: _399  and  _400
REMARK  159  A    between atoms: _399  and  _402
REMARK  160  A    between atoms: _402  and  _403
REMARK  161  A    between atoms: _408  and  _410
REMARK  162  A    between atoms: _410  and  _411
REMARK  163  A    between atoms: _410  and  _413
REMARK  164  A    between atoms: _413  and  _414
REMARK  165  A    between atoms: _424  and  _426
REMARK  166  A    between atoms: _426  and  _427
REMARK  167  A    between atoms: _426  and  _429
REMARK  168  A    between atoms: _429  and  _430
REMARK  169  A    between atoms: _435  and  _437
REMARK  170  A    between atoms: _437  and  _438
REMARK  171  A    between atoms: _437  and  _440
REMARK  172  A    between atoms: _440  and  _441
REMARK  173  A    between atoms: _441  and  _442
REMARK  174  A    between atoms: _442  and  _443
REMARK  175  A    between atoms: _443  and  _444
REMARK  176  A    between atoms: _448  and  _450
REMARK  177  A    between atoms: _450  and  _451
REMARK  178  A    between atoms: _450  and  _453
REMARK  179  A    between atoms: _453  and  _454
REMARK  180  A    between atoms: _460  and  _462
REMARK  181  A    between atoms: _462  and  _463
REMARK  182  A    between atoms: _465  and  _467
REMARK  183  A    between atoms: _467  and  _468
REMARK  184  A    between atoms: _467  and  _470
REMARK  185  A    between atoms: _470  and  _471
REMARK  186  A    between atoms: _473  and  _475
REMARK  187  A    between atoms: _475  and  _476
REMARK  188  A    between atoms: _475  and  _478
REMARK  189  A    between atoms: _478  and  _479
REMARK  190  A    between atoms: _479  and  _480
REMARK  191  A    between atoms: _480  and  _481
REMARK  192  A    between atoms: _481  and  _482
REMARK  193  A    between atoms: _486  and  _488
REMARK  194  A    between atoms: _488  and  _489
REMARK  195  A    between atoms: _488  and  _491
REMARK  196  A    between atoms: _491  and  _492
REMARK  197  A    between atoms: _497  and  _499
REMARK  198  A    between atoms: _499  and  _500
REMARK  199  A    between atoms: _499  and  _502
REMARK  200  A    between atoms: _502  and  _503
REMARK  201  A    between atoms: _503  and  _504
REMARK  202  A    between atoms: _504  and  _505
REMARK  203  A    between atoms: _514  and  _516
REMARK  204  A    between atoms: _516  and  _517
REMARK  205  A    between atoms: _516  and  _519
REMARK  206  A    between atoms: _519  and  _520
REMARK  207  A    between atoms: _520  and  _521
REMARK  208  A    between atoms: _526  and  _528
REMARK  209  A    between atoms: _528  and  _529
REMARK  210  A    between atoms: _528  and  _531
REMARK  211  A    between atoms: _531  and  _532
REMARK  212  A    between atoms: _532  and  _533
REMARK  213  A    between atoms: _538  and  _540
REMARK  214  A    between atoms: _540  and  _541
REMARK  215  A    between atoms: _540  and  _543
REMARK  216  A    between atoms: _543  and  _544
REMARK  217  A    between atoms: _544  and  _545
REMARK  218  A    between atoms: _547  and  _549
REMARK  219  A    between atoms: _549  and  _550
REMARK  220  A    between atoms: _549  and  _552
REMARK  221  A    between atoms: _552  and  _553
REMARK  222  A    between atoms: _555  and  _557
REMARK  223  A    between atoms: _557  and  _558
REMARK  224  A    between atoms: _557  and  _560
REMARK  225  A    between atoms: _560  and  _561
REMARK  226  A    between atoms: _566  and  _567
REMARK  227  A    between atoms: _569  and  _571
REMARK  228  A    between atoms: _571  and  _572
REMARK  229  A    between atoms: _571  and  _574
REMARK  230  A    between atoms: _574  and  _575
REMARK  231  A    between atoms: _585  and  _587
REMARK  232  A    between atoms: _587  and  _588
REMARK  233  A    between atoms: _587  and  _590
REMARK  234  A    between atoms: _590  and  _591
REMARK  235  A    between atoms: _594  and  _596
REMARK  236  A    between atoms: _596  and  _597
REMARK  237  A    between atoms: _600  and  _602
REMARK  238  A    between atoms: _602  and  _603
REMARK  239  A    between atoms: _602  and  _605
REMARK  240  A    between atoms: _605  and  _606
REMARK                            x       y       z     vdW  Elec       q    Type
REMARK                         _______ _______ _______ _____ _____    ______ ____
ROOT
ATOM      1  O   HOH     1     -18.989  16.732  -2.672  0.00  0.00    +0.000 OA
ENDROOT
TORSDOF 0
REMARK  Name = ../refined-set-2016/4ua8/4ua8_pocket.pdb
REMARK  240 active torsions:
REMARK  status: ('A' for Active; 'I' for Inactive)
REMARK    1  A    between atoms: _1  and  _3
REMARK    2  A    between atoms: _3  and  _4
REMARK    3  A    between atoms: _7  and  _8
REMARK    4  A    between atoms: _13  and  _15
REMARK    5  A    between atoms: _15  and  _16
REMARK    6  A    between atoms: _19  and  _21
REMARK    7  A    between atoms: _21  and  _22
REMARK    8  A    between atoms: _21  and  _24
REMARK    9  A    between atoms: _24  and  _25
REMARK   10  A    between atoms: _25  and  _26
REMARK   11  A    between atoms: _29  and  _31
REMARK   12  A    between atoms: _31  and  _32
REMARK   13  A    between atoms: _31  and  _34
REMARK   14  A    between atoms: _34  and  _35
REMARK   15  A    between atoms: _38  and  _40
REMARK   16  A    between atoms: _40  and  _41
REMARK   17  A    between atoms: _40  and  _43
REMARK   18  A    between atoms: _43  and  _44
REMARK   19  A    between atoms: _46  and  _48
REMARK   20  A    between atoms: _48  and  _49
REMARK   21  A    between atoms: _48  and  _51
REMARK   22  A    between atoms: _51  and  _52
REMARK   23  A    between atoms: _54  and  _56
REMARK   24  A    between atoms: _56  and  _57
REMARK   25  A    between atoms: _56  and  _59
REMARK   26  A    between atoms: _59  and  _60
REMARK   27  A    between atoms: _60  and  _61
REMARK   28  A    between atoms: _64  and  _66
REMARK   29  A    between atoms: _66  and  _67
REMARK   30  A    between atoms: _66  and  _69
REMARK   31  A    between atoms: _69  and  _70
REMARK   32  A    between atoms: _72  and  _74
REMARK   33  A    between atoms: _74  and  _75
REMARK   34  A    between atoms: _74  and  _77
REMARK   35  A    between atoms: _77  and  _78
REMARK   36  A    between atoms: _81  and  _83
REMARK   37  A    between atoms: _83  and  _84
REMARK   38  A    between atoms: _87  and  _89
REMARK   39  A    between atoms: _89  and  _90
REMARK   40  A    between atoms: _89  and  _92
REMARK   41  A    between atoms: _92  and  _93
REMARK   42  A    between atoms: _93  and  _94
REMARK   43  A    between atoms: _94  and  _95
REMARK   44  A    between atoms: _95  and  _96
REMARK   45  A    between atoms: _100  and  _102
REMARK   46  A    between atoms: _102  and  _103
REMARK   47  A    between atoms: _102  and  _105
REMARK   48  A    between atoms: _105  and  _106
REMARK   49  A    between atoms: _109  and  _111
REMARK   50  A    between atoms: _111  and  _112
REMARK   51  A    between atoms: _111  and  _114
REMARK   52  A    between atoms: _114  and  _115
REMARK   53  A    between atoms: _115  and  _116
REMARK   54  A    between atoms: _118  and  _120
REMARK   55  A    between atoms: _120  and  _121
REMARK   56  A    between atoms: _120  and  _123
REMARK   57  A    between atoms: _123  and  _124
REMARK   58  A    between atoms: _130  and  _132
REMARK   59  A    between atoms: _132  and  _133
REMARK   60  A    between atoms: _136  and  _138
REMARK   61  A    between atoms: _138  and  _139
REMARK   62  A    between atoms: _138  and  _141
REMARK   63  A    between atoms: _141  and  _142
REMARK   64  A    between atoms: _147  and  _149
REMARK   65  A    between atoms: _149  and  _150
REMARK   66  A    between atoms: _149  and  _152
REMARK   67  A    between atoms: _152  and  _153
REMARK   68  A    between atoms: _156  and  _158
REMARK   69  A    between atoms: _158  and  _159
REMARK   70  A    between atoms: _158  and  _161
REMARK   71  A    between atoms: _161  and  _162
REMARK   72  A    between atoms: _162  and  _163
REMARK   73  A    between atoms: _168  and  _170
REMARK   74  A    between atoms: _170  and  _171
REMARK   75  A    between atoms: _170  and  _173
REMARK   76  A    between atoms: _173  and  _174
REMARK   77  A    between atoms: _178  and  _179
REMARK   78  A    between atoms: _184  and  _186
REMARK   79  A    between atoms: _186  and  _187
REMARK   80  A    between atoms: _186  and  _189
REMARK   81  A    between atoms: _189  and  _190
REMARK   82  A    between atoms: _195  and  _196
REMARK   83  A    between atoms: _198  and  _200
REMARK   84  A    between atoms: _200  and  _201
REMARK   85  A    between atoms: _200  and  _203
REMARK   86  A    between atoms: _203  and  _204
REMARK   87  A    between atoms: _207  and  _209
REMARK   88  A    between atoms: _209  and  _210
REMARK   89  A    between atoms: _209  and  _212
REMARK   90  A    between atoms: _212  and  _213
REMARK   91  A    between atoms: _215  and  _217
REMARK   92  A    between atoms: _217  and  _218
REMARK   93  A    between atoms: _217  and  _220
REMARK   94  A    between atoms: _220  and  _221
REMARK   95  A    between atoms: _226  and  _228
REMARK   96  A    between atoms: _228  and  _229
REMARK   97  A    between atoms: _228  and  _231
REMARK   98  A    between atoms: _231  and  _232
REMARK   99  A    between atoms: _235  and  _237
REMARK  100  A    between atoms: _237  and  _238
REMARK  101  A    between atoms: _237  and  _240
REMARK  102  A    between atoms: _240  and  _241
REMARK  103  A    between atoms: _252  and  _253
REMARK  104  A    between atoms: _258  and  _260
REMARK  105  A    between atoms: _260  and  _261
REMARK  106  A    between atoms: _260  and  _263
REMARK  107  A    between atoms: _263  and  _264
REMARK  108  A    between atoms: _267  and  _269
REMARK  109  A    between atoms: _269  and  _270
REMARK  110  A    between atoms: _269  and  _272
REMARK  111  A    between atoms: _272  and  _273
REMARK  112  A    between atoms: _278  and  _280
REMARK  113  A    between atoms: _280  and  _281
REMARK  114  A    between atoms: _283  and  _285
REMARK  115  A    between atoms: _285  and  _286
REMARK  116  A    between atoms: _285  and  _288
REMARK  117  A    between atoms: _288  and  _289
REMARK  118  A    between atoms: _299  and  _301
REMARK  119  A    between atoms: _301  and  _302
REMARK  120  A    between atoms: _301  and  _304
REMARK  121  A    between atoms: _304  and  _305
REMARK  122  A    between atoms: _310  and  _311
REMARK  123  A    between atoms: _313  and  _315
REMARK  124  A    between atoms: _315  and  _316
REMARK  125  A    between atoms: _315  and  _318
REMARK  126  A    between atoms: _318  and  _319
REMARK  127  A    between atoms: _322  and  _324
REMARK  128  A    between atoms: _324  and  _325
REMARK  129  A    between atoms: _324  and  _327
REMARK  130  A    between atoms: _327  and  _328
REMARK  131  A    between atoms: _333  and  _335
REMARK  132  A    between atoms: _335  and  _336
REMARK  133  A    between atoms: _335  and  _338
REMARK  134  A    between atoms: _338  and  _339
REMARK  135  A    between atoms: _344  and  _346
REMARK  136  A    between atoms: _346  and  _347
REMARK  137  A    between atoms: _346  and  _349
REMARK  138  A    between atoms: _349  and  _350
REMARK  139  A    between atoms: _350  and  _351
REMARK  140  A    between atoms: _354  and  _356
REMARK  141  A    between atoms: _356  and  _357
REMARK  142  A    between atoms: _359  and  _361
REMARK  143  A    between atoms: _361  and  _362
REMARK  144  A    between atoms: _361  and  _364
REMARK  145  A    between atoms: _364  and  _365
REMARK  146  A    between atoms: _367  and  _369
REMARK  147  A    between atoms: _369  and  _370
REMARK  148  A    between atoms: _369  and  _372
REMARK  149  A    between atoms: _372  and  _373
REMARK  150  A    between atoms: _378  and  _379
REMARK  151  A    between atoms: _381  and  _383
REMARK  152  A    between atoms: _383  and  _384
REMARK  153  A    between atoms: _383  and  _386
REMARK  154  A    between atoms: _386  and  _387
REMARK  155  A    between atoms: _392  and  _394
REMARK  156  A    between atoms: _394  and  _395
REMARK  157  A    between atoms: _397  and  _399
REMARK  158  A    between atoms: _399  and  _400
REMARK  159  A    between atoms: _399  and  _402
REMARK  160  A    between atoms: _402  and  _403
REMARK  161  A    between atoms: _408  and  _410
REMARK  162  A    between atoms: _410  and  _411
REMARK  163  A    between atoms: _410  and  _413
REMARK  164  A    between atoms: _413  and  _414
REMARK  165  A    between atoms: _424  and  _426
REMARK  166  A    between atoms: _426  and  _427
REMARK  167  A    between atoms: _426  and  _429
REMARK  168  A    between atoms: _429  and  _430
REMARK  169  A    between atoms: _435  and  _437
REMARK  170  A    between atoms: _437  and  _438
REMARK  171  A    between atoms: _437  and  _440
REMARK  172  A    between atoms: _440  and  _441
REMARK  173  A    between atoms: _441  and  _442
REMARK  174  A    between atoms: _442  and  _443
REMARK  175  A    between atoms: _443  and  _444
REMARK  176  A    between atoms: _448  and  _450
REMARK  177  A    between atoms: _450  and  _451
REMARK  178  A    between atoms: _450  and  _453
REMARK  179  A    between atoms: _453  and  _454
REMARK  180  A    between atoms: _460  and  _462
REMARK  181  A    between atoms: _462  and  _463
REMARK  182  A    between atoms: _465  and  _467
REMARK  183  A    between atoms: _467  and  _468
REMARK  184  A    between atoms: _467  and  _470
REMARK  185  A    between atoms: _470  and  _471
REMARK  186  A    between atoms: _473  and  _475
REMARK  187  A    between atoms: _475  and  _476
REMARK  188  A    between atoms: _475  and  _478
REMARK  189  A    between atoms: _478  and  _479
REMARK  190  A    between atoms: _479  and  _480
REMARK  191  A    between atoms: _480  and  _481
REMARK  192  A    between atoms: _481  and  _482
REMARK  193  A    between atoms: _486  and  _488
REMARK  194  A    between atoms: _488  and  _489
REMARK  195  A    between atoms: _488  and  _491
REMARK  196  A    between atoms: _491  and  _492
REMARK  197  A    between atoms: _497  and  _499
REMARK  198  A    between atoms: _499  and  _500
REMARK  199  A    between atoms: _499  and  _502
REMARK  200  A    between atoms: _502  and  _503
REMARK  201  A    between atoms: _503  and  _504
REMARK  202  A    between atoms: _504  and  _505
REMARK  203  A    between atoms: _514  and  _516
REMARK  204  A    between atoms: _516  and  _517
REMARK  205  A    between atoms: _516  and  _519
REMARK  206  A    between atoms: _519  and  _520
REMARK  207  A    between atoms: _520  and  _521
REMARK  208  A    between atoms: _526  and  _528
REMARK  209  A    between atoms: _528  and  _529
REMARK  210  A    between atoms: _528  and  _531
REMARK  211  A    between atoms: _531  and  _532
REMARK  212  A    between atoms: _532  and  _533
REMARK  213  A    between atoms: _538  and  _540
REMARK  214  A    between atoms: _540  and  _541
REMARK  215  A    between atoms: _540  and  _543
REMARK  216  A    between atoms: _543  and  _544
REMARK  217  A    between atoms: _544  and  _545
REMARK  218  A    between atoms: _547  and  _549
REMARK  219  A    between atoms: _549  and  _550
REMARK  220  A    between atoms: _549  and  _552
REMARK  221  A    between atoms: _552  and  _553
REMARK  222  A    between atoms: _555  and  _557
REMARK  223  A    between atoms: _557  and  _558
REMARK  224  A    between atoms: _557  and  _560
REMARK  225  A    between atoms: _560  and  _561
REMARK  226  A    between atoms: _566  and  _567
REMARK  227  A    between atoms: _569  and  _571
REMARK  228  A    between atoms: _571  and  _572
REMARK  229  A    between atoms: _571  and  _574
REMARK  230  A    between atoms: _574  and  _575
REMARK  231  A    between atoms: _585  and  _587
REMARK  232  A    between atoms: _587  and  _588
REMARK  233  A    between atoms: _587  and  _590
REMARK  234  A    between atoms: _590  and  _591
REMARK  235  A    between atoms: _594  and  _596
REMARK  236  A    between atoms: _596  and  _597
REMARK  237  A    between atoms: _600  and  _602
REMARK  238  A    between atoms: _602  and  _603
REMARK  239  A    between atoms: _602  and  _605
REMARK  240  A    between atoms: _605  and  _606
REMARK                            x       y       z     vdW  Elec       q    Type
REMARK                         _______ _______ _______ _____ _____    ______ ____
ROOT
ATOM      1  O   HOH     1     -24.833  12.877   1.323  0.00  0.00    +0.000 OA
ENDROOT
TORSDOF 0
REMARK  Name = ../refined-set-2016/4ua8/4ua8_pocket.pdb
REMARK  240 active torsions:
REMARK  status: ('A' for Active; 'I' for Inactive)
REMARK    1  A    between atoms: _1  and  _3
REMARK    2  A    between atoms: _3  and  _4
REMARK    3  A    between atoms: _7  and  _8
REMARK    4  A    between atoms: _13  and  _15
REMARK    5  A    between atoms: _15  and  _16
REMARK    6  A    between atoms: _19  and  _21
REMARK    7  A    between atoms: _21  and  _22
REMARK    8  A    between atoms: _21  and  _24
REMARK    9  A    between atoms: _24  and  _25
REMARK   10  A    between atoms: _25  and  _26
REMARK   11  A    between atoms: _29  and  _31
REMARK   12  A    between atoms: _31  and  _32
REMARK   13  A    between atoms: _31  and  _34
REMARK   14  A    between atoms: _34  and  _35
REMARK   15  A    between atoms: _38  and  _40
REMARK   16  A    between atoms: _40  and  _41
REMARK   17  A    between atoms: _40  and  _43
REMARK   18  A    between atoms: _43  and  _44
REMARK   19  A    between atoms: _46  and  _48
REMARK   20  A    between atoms: _48  and  _49
REMARK   21  A    between atoms: _48  and  _51
REMARK   22  A    between atoms: _51  and  _52
REMARK   23  A    between atoms: _54  and  _56
REMARK   24  A    between atoms: _56  and  _57
REMARK   25  A    between atoms: _56  and  _59
REMARK   26  A    between atoms: _59  and  _60
REMARK   27  A    between atoms: _60  and  _61
REMARK   28  A    between atoms: _64  and  _66
REMARK   29  A    between atoms: _66  and  _67
REMARK   30  A    between atoms: _66  and  _69
REMARK   31  A    between atoms: _69  and  _70
REMARK   32  A    between atoms: _72  and  _74
REMARK   33  A    between atoms: _74  and  _75
REMARK   34  A    between atoms: _74  and  _77
REMARK   35  A    between atoms: _77  and  _78
REMARK   36  A    between atoms: _81  and  _83
REMARK   37  A    between atoms: _83  and  _84
REMARK   38  A    between atoms: _87  and  _89
REMARK   39  A    between atoms: _89  and  _90
REMARK   40  A    between atoms: _89  and  _92
REMARK   41  A    between atoms: _92  and  _93
REMARK   42  A    between atoms: _93  and  _94
REMARK   43  A    between atoms: _94  and  _95
REMARK   44  A    between atoms: _95  and  _96
REMARK   45  A    between atoms: _100  and  _102
REMARK   46  A    between atoms: _102  and  _103
REMARK   47  A    between atoms: _102  and  _105
REMARK   48  A    between atoms: _105  and  _106
REMARK   49  A    between atoms: _109  and  _111
REMARK   50  A    between atoms: _111  and  _112
REMARK   51  A    between atoms: _111  and  _114
REMARK   52  A    between atoms: _114  and  _115
REMARK   53  A    between atoms: _115  and  _116
REMARK   54  A    between atoms: _118  and  _120
REMARK   55  A    between atoms: _120  and  _121
REMARK   56  A    between atoms: _120  and  _123
REMARK   57  A    between atoms: _123  and  _124
REMARK   58  A    between atoms: _130  and  _132
REMARK   59  A    between atoms: _132  and  _133
REMARK   60  A    between atoms: _136  and  _138
REMARK   61  A    between atoms: _138  and  _139
REMARK   62  A    between atoms: _138  and  _141
REMARK   63  A    between atoms: _141  and  _142
REMARK   64  A    between atoms: _147  and  _149
REMARK   65  A    between atoms: _149  and  _150
REMARK   66  A    between atoms: _149  and  _152
REMARK   67  A    between atoms: _152  and  _153
REMARK   68  A    between atoms: _156  and  _158
REMARK   69  A    between atoms: _158  and  _159
REMARK   70  A    between atoms: _158  and  _161
REMARK   71  A    between atoms: _161  and  _162
REMARK   72  A    between atoms: _162  and  _163
REMARK   73  A    between atoms: _168  and  _170
REMARK   74  A    between atoms: _170  and  _171
REMARK   75  A    between atoms: _170  and  _173
REMARK   76  A    between atoms: _173  and  _174
REMARK   77  A    between atoms: _178  and  _179
REMARK   78  A    between atoms: _184  and  _186
REMARK   79  A    between atoms: _186  and  _187
REMARK   80  A    between atoms: _186  and  _189
REMARK   81  A    between atoms: _189  and  _190
REMARK   82  A    between atoms: _195  and  _196
REMARK   83  A    between atoms: _198  and  _200
REMARK   84  A    between atoms: _200  and  _201
REMARK   85  A    between atoms: _200  and  _203
REMARK   86  A    between atoms: _203  and  _204
REMARK   87  A    between atoms: _207  and  _209
REMARK   88  A    between atoms: _209  and  _210
REMARK   89  A    between atoms: _209  and  _212
REMARK   90  A    between atoms: _212  and  _213
REMARK   91  A    between atoms: _215  and  _217
REMARK   92  A    between atoms: _217  and  _218
REMARK   93  A    between atoms: _217  and  _220
REMARK   94  A    between atoms: _220  and  _221
REMARK   95  A    between atoms: _226  and  _228
REMARK   96  A    between atoms: _228  and  _229
REMARK   97  A    between atoms: _228  and  _231
REMARK   98  A    between atoms: _231  and  _232
REMARK   99  A    between atoms: _235  and  _237
REMARK  100  A    between atoms: _237  and  _238
REMARK  101  A    between atoms: _237  and  _240
REMARK  102  A    between atoms: _240  and  _241
REMARK  103  A    between atoms: _252  and  _253
REMARK  104  A    between atoms: _258  and  _260
REMARK  105  A    between atoms: _260  and  _261
REMARK  106  A    between atoms: _260  and  _263
REMARK  107  A    between atoms: _263  and  _264
REMARK  108  A    between atoms: _267  and  _269
REMARK  109  A    between atoms: _269  and  _270
REMARK  110  A    between atoms: _269  and  _272
REMARK  111  A    between atoms: _272  and  _273
REMARK  112  A    between atoms: _278  and  _280
REMARK  113  A    between atoms: _280  and  _281
REMARK  114  A    between atoms: _283  and  _285
REMARK  115  A    between atoms: _285  and  _286
REMARK  116  A    between atoms: _285  and  _288
REMARK  117  A    between atoms: _288  and  _289
REMARK  118  A    between atoms: _299  and  _301
REMARK  119  A    between atoms: _301  and  _302
REMARK  120  A    between atoms: _301  and  _304
REMARK  121  A    between atoms: _304  and  _305
REMARK  122  A    between atoms: _310  and  _311
REMARK  123  A    between atoms: _313  and  _315
REMARK  124  A    between atoms: _315  and  _316
REMARK  125  A    between atoms: _315  and  _318
REMARK  126  A    between atoms: _318  and  _319
REMARK  127  A    between atoms: _322  and  _324
REMARK  128  A    between atoms: _324  and  _325
REMARK  129  A    between atoms: _324  and  _327
REMARK  130  A    between atoms: _327  and  _328
REMARK  131  A    between atoms: _333  and  _335
REMARK  132  A    between atoms: _335  and  _336
REMARK  133  A    between atoms: _335  and  _338
REMARK  134  A    between atoms: _338  and  _339
REMARK  135  A    between atoms: _344  and  _346
REMARK  136  A    between atoms: _346  and  _347
REMARK  137  A    between atoms: _346  and  _349
REMARK  138  A    between atoms: _349  and  _350
REMARK  139  A    between atoms: _350  and  _351
REMARK  140  A    between atoms: _354  and  _356
REMARK  141  A    between atoms: _356  and  _357
REMARK  142  A    between atoms: _359  and  _361
REMARK  143  A    between atoms: _361  and  _362
REMARK  144  A    between atoms: _361  and  _364
REMARK  145  A    between atoms: _364  and  _365
REMARK  146  A    between atoms: _367  and  _369
REMARK  147  A    between atoms: _369  and  _370
REMARK  148  A    between atoms: _369  and  _372
REMARK  149  A    between atoms: _372  and  _373
REMARK  150  A    between atoms: _378  and  _379
REMARK  151  A    between atoms: _381  and  _383
REMARK  152  A    between atoms: _383  and  _384
REMARK  153  A    between atoms: _383  and  _386
REMARK  154  A    between atoms: _386  and  _387
REMARK  155  A    between atoms: _392  and  _394
REMARK  156  A    between atoms: _394  and  _395
REMARK  157  A    between atoms: _397  and  _399
REMARK  158  A    between atoms: _399  and  _400
REMARK  159  A    between atoms: _399  and  _402
REMARK  160  A    between atoms: _402  and  _403
REMARK  161  A    between atoms: _408  and  _410
REMARK  162  A    between atoms: _410  and  _411
REMARK  163  A    between atoms: _410  and  _413
REMARK  164  A    between atoms: _413  and  _414
REMARK  165  A    between atoms: _424  and  _426
REMARK  166  A    between atoms: _426  and  _427
REMARK  167  A    between atoms: _426  and  _429
REMARK  168  A    between atoms: _429  and  _430
REMARK  169  A    between atoms: _435  and  _437
REMARK  170  A    between atoms: _437  and  _438
REMARK  171  A    between atoms: _437  and  _440
REMARK  172  A    between atoms: _440  and  _441
REMARK  173  A    between atoms: _441  and  _442
REMARK  174  A    between atoms: _442  and  _443
REMARK  175  A    between atoms: _443  and  _444
REMARK  176  A    between atoms: _448  and  _450
REMARK  177  A    between atoms: _450  and  _451
REMARK  178  A    between atoms: _450  and  _453
REMARK  179  A    between atoms: _453  and  _454
REMARK  180  A    between atoms: _460  and  _462
REMARK  181  A    between atoms: _462  and  _463
REMARK  182  A    between atoms: _465  and  _467
REMARK  183  A    between atoms: _467  and  _468
REMARK  184  A    between atoms: _467  and  _470
REMARK  185  A    between atoms: _470  and  _471
REMARK  186  A    between atoms: _473  and  _475
REMARK  187  A    between atoms: _475  and  _476
REMARK  188  A    between atoms: _475  and  _478
REMARK  189  A    between atoms: _478  and  _479
REMARK  190  A    between atoms: _479  and  _480
REMARK  191  A    between atoms: _480  and  _481
REMARK  192  A    between atoms: _481  and  _482
REMARK  193  A    between atoms: _486  and  _488
REMARK  194  A    between atoms: _488  and  _489
REMARK  195  A    between atoms: _488  and  _491
REMARK  196  A    between atoms: _491  and  _492
REMARK  197  A    between atoms: _497  and  _499
REMARK  198  A    between atoms: _499  and  _500
REMARK  199  A    between atoms: _499  and  _502
REMARK  200  A    between atoms: _502  and  _503
REMARK  201  A    between atoms: _503  and  _504
REMARK  202  A    between atoms: _504  and  _505
REMARK  203  A    between atoms: _514  and  _516
REMARK  204  A    between atoms: _516  and  _517
REMARK  205  A    between atoms: _516  and  _519
REMARK  206  A    between atoms: _519  and  _520
REMARK  207  A    between atoms: _520  and  _521
REMARK  208  A    between atoms: _526  and  _528
REMARK  209  A    between atoms: _528  and  _529
REMARK  210  A    between atoms: _528  and  _531
REMARK  211  A    between atoms: _531  and  _532
REMARK  212  A    between atoms: _532  and  _533
REMARK  213  A    between atoms: _538  and  _540
REMARK  214  A    between atoms: _540  and  _541
REMARK  215  A    between atoms: _540  and  _543
REMARK  216  A    between atoms: _543  and  _544
REMARK  217  A    between atoms: _544  and  _545
REMARK  218  A    between atoms: _547  and  _549
REMARK  219  A    between atoms: _549  and  _550
REMARK  220  A    between atoms: _549  and  _552
REMARK  221  A    between atoms: _552  and  _553
REMARK  222  A    between atoms: _555  and  _557
REMARK  223  A    between atoms: _557  and  _558
REMARK  224  A    between atoms: _557  and  _560
REMARK  225  A    between atoms: _560  and  _561
REMARK  226  A    between atoms: _566  and  _567
REMARK  227  A    between atoms: _569  and  _571
REMARK  228  A    between atoms: _571  and  _572
REMARK  229  A    between atoms: _571  and  _574
REMARK  230  A    between atoms: _574  and  _575
REMARK  231  A    between atoms: _585  and  _587
REMARK  232  A    between atoms: _587  and  _588
REMARK  233  A    between atoms: _587  and  _590
REMARK  234  A    between atoms: _590  and  _591
REMARK  235  A    between atoms: _594  and  _596
REMARK  236  A    between atoms: _596  and  _597
REMARK  237  A    between atoms: _600  and  _602
REMARK  238  A    between atoms: _602  and  _603
REMARK  239  A    between atoms: _602  and  _605
REMARK  240  A    between atoms: _605  and  _606
REMARK                            x       y       z     vdW  Elec       q    Type
REMARK                         _______ _______ _______ _____ _____    ______ ____
ROOT
ATOM      1  O   HOH     1     -32.978   8.484   3.264  0.00  0.00    +0.000 OA
ENDROOT
TORSDOF 0
REMARK  Name = ../refined-set-2016/4ua8/4ua8_pocket.pdb
REMARK  240 active torsions:
REMARK  status: ('A' for Active; 'I' for Inactive)
REMARK    1  A    between atoms: _1  and  _3
REMARK    2  A    between atoms: _3  and  _4
REMARK    3  A    between atoms: _7  and  _8
REMARK    4  A    between atoms: _13  and  _15
REMARK    5  A    between atoms: _15  and  _16
REMARK    6  A    between atoms: _19  and  _21
REMARK    7  A    between atoms: _21  and  _22
REMARK    8  A    between atoms: _21  and  _24
REMARK    9  A    between atoms: _24  and  _25
REMARK   10  A    between atoms: _25  and  _26
REMARK   11  A    between atoms: _29  and  _31
REMARK   12  A    between atoms: _31  and  _32
REMARK   13  A    between atoms: _31  and  _34
REMARK   14  A    between atoms: _34  and  _35
REMARK   15  A    between atoms: _38  and  _40
REMARK   16  A    between atoms: _40  and  _41
REMARK   17  A    between atoms: _40  and  _43
REMARK   18  A    between atoms: _43  and  _44
REMARK   19  A    between atoms: _46  and  _48
REMARK   20  A    between atoms: _48  and  _49
REMARK   21  A    between atoms: _48  and  _51
REMARK   22  A    between atoms: _51  and  _52
REMARK   23  A    between atoms: _54  and  _56
REMARK   24  A    between atoms: _56  and  _57
REMARK   25  A    between atoms: _56  and  _59
REMARK   26  A    between atoms: _59  and  _60
REMARK   27  A    between atoms: _60  and  _61
REMARK   28  A    between atoms: _64  and  _66
REMARK   29  A    between atoms: _66  and  _67
REMARK   30  A    between atoms: _66  and  _69
REMARK   31  A    between atoms: _69  and  _70
REMARK   32  A    between atoms: _72  and  _74
REMARK   33  A    between atoms: _74  and  _75
REMARK   34  A    between atoms: _74  and  _77
REMARK   35  A    between atoms: _77  and  _78
REMARK   36  A    between atoms: _81  and  _83
REMARK   37  A    between atoms: _83  and  _84
REMARK   38  A    between atoms: _87  and  _89
REMARK   39  A    between atoms: _89  and  _90
REMARK   40  A    between atoms: _89  and  _92
REMARK   41  A    between atoms: _92  and  _93
REMARK   42  A    between atoms: _93  and  _94
REMARK   43  A    between atoms: _94  and  _95
REMARK   44  A    between atoms: _95  and  _96
REMARK   45  A    between atoms: _100  and  _102
REMARK   46  A    between atoms: _102  and  _103
REMARK   47  A    between atoms: _102  and  _105
REMARK   48  A    between atoms: _105  and  _106
REMARK   49  A    between atoms: _109  and  _111
REMARK   50  A    between atoms: _111  and  _112
REMARK   51  A    between atoms: _111  and  _114
REMARK   52  A    between atoms: _114  and  _115
REMARK   53  A    between atoms: _115  and  _116
REMARK   54  A    between atoms: _118  and  _120
REMARK   55  A    between atoms: _120  and  _121
REMARK   56  A    between atoms: _120  and  _123
REMARK   57  A    between atoms: _123  and  _124
REMARK   58  A    between atoms: _130  and  _132
REMARK   59  A    between atoms: _132  and  _133
REMARK   60  A    between atoms: _136  and  _138
REMARK   61  A    between atoms: _138  and  _139
REMARK   62  A    between atoms: _138  and  _141
REMARK   63  A    between atoms: _141  and  _142
REMARK   64  A    between atoms: _147  and  _149
REMARK   65  A    between atoms: _149  and  _150
REMARK   66  A    between atoms: _149  and  _152
REMARK   67  A    between atoms: _152  and  _153
REMARK   68  A    between atoms: _156  and  _158
REMARK   69  A    between atoms: _158  and  _159
REMARK   70  A    between atoms: _158  and  _161
REMARK   71  A    between atoms: _161  and  _162
REMARK   72  A    between atoms: _162  and  _163
REMARK   73  A    between atoms: _168  and  _170
REMARK   74  A    between atoms: _170  and  _171
REMARK   75  A    between atoms: _170  and  _173
REMARK   76  A    between atoms: _173  and  _174
REMARK   77  A    between atoms: _178  and  _179
REMARK   78  A    between atoms: _184  and  _186
REMARK   79  A    between atoms: _186  and  _187
REMARK   80  A    between atoms: _186  and  _189
REMARK   81  A    between atoms: _189  and  _190
REMARK   82  A    between atoms: _195  and  _196
REMARK   83  A    between atoms: _198  and  _200
REMARK   84  A    between atoms: _200  and  _201
REMARK   85  A    between atoms: _200  and  _203
REMARK   86  A    between atoms: _203  and  _204
REMARK   87  A    between atoms: _207  and  _209
REMARK   88  A    between atoms: _209  and  _210
REMARK   89  A    between atoms: _209  and  _212
REMARK   90  A    between atoms: _212  and  _213
REMARK   91  A    between atoms: _215  and  _217
REMARK   92  A    between atoms: _217  and  _218
REMARK   93  A    between atoms: _217  and  _220
REMARK   94  A    between atoms: _220  and  _221
REMARK   95  A    between atoms: _226  and  _228
REMARK   96  A    between atoms: _228  and  _229
REMARK   97  A    between atoms: _228  and  _231
REMARK   98  A    between atoms: _231  and  _232
REMARK   99  A    between atoms: _235  and  _237
REMARK  100  A    between atoms: _237  and  _238
REMARK  101  A    between atoms: _237  and  _240
REMARK  102  A    between atoms: _240  and  _241
REMARK  103  A    between atoms: _252  and  _253
REMARK  104  A    between atoms: _258  and  _260
REMARK  105  A    between atoms: _260  and  _261
REMARK  106  A    between atoms: _260  and  _263
REMARK  107  A    between atoms: _263  and  _264
REMARK  108  A    between atoms: _267  and  _269
REMARK  109  A    between atoms: _269  and  _270
REMARK  110  A    between atoms: _269  and  _272
REMARK  111  A    between atoms: _272  and  _273
REMARK  112  A    between atoms: _278  and  _280
REMARK  113  A    between atoms: _280  and  _281
REMARK  114  A    between atoms: _283  and  _285
REMARK  115  A    between atoms: _285  and  _286
REMARK  116  A    between atoms: _285  and  _288
REMARK  117  A    between atoms: _288  and  _289
REMARK  118  A    between atoms: _299  and  _301
REMARK  119  A    between atoms: _301  and  _302
REMARK  120  A    between atoms: _301  and  _304
REMARK  121  A    between atoms: _304  and  _305
REMARK  122  A    between atoms: _310  and  _311
REMARK  123  A    between atoms: _313  and  _315
REMARK  124  A    between atoms: _315  and  _316
REMARK  125  A    between atoms: _315  and  _318
REMARK  126  A    between atoms: _318  and  _319
REMARK  127  A    between atoms: _322  and  _324
REMARK  128  A    between atoms: _324  and  _325
REMARK  129  A    between atoms: _324  and  _327
REMARK  130  A    between atoms: _327  and  _328
REMARK  131  A    between atoms: _333  and  _335
REMARK  132  A    between atoms: _335  and  _336
REMARK  133  A    between atoms: _335  and  _338
REMARK  134  A    between atoms: _338  and  _339
REMARK  135  A    between atoms: _344  and  _346
REMARK  136  A    between atoms: _346  and  _347
REMARK  137  A    between atoms: _346  and  _349
REMARK  138  A    between atoms: _349  and  _350
REMARK  139  A    between atoms: _350  and  _351
REMARK  140  A    between atoms: _354  and  _356
REMARK  141  A    between atoms: _356  and  _357
REMARK  142  A    between atoms: _359  and  _361
REMARK  143  A    between atoms: _361  and  _362
REMARK  144  A    between atoms: _361  and  _364
REMARK  145  A    between atoms: _364  and  _365
REMARK  146  A    between atoms: _367  and  _369
REMARK  147  A    between atoms: _369  and  _370
REMARK  148  A    between atoms: _369  and  _372
REMARK  149  A    between atoms: _372  and  _373
REMARK  150  A    between atoms: _378  and  _379
REMARK  151  A    between atoms: _381  and  _383
REMARK  152  A    between atoms: _383  and  _384
REMARK  153  A    between atoms: _383  and  _386
REMARK  154  A    between atoms: _386  and  _387
REMARK  155  A    between atoms: _392  and  _394
REMARK  156  A    between atoms: _394  and  _395
REMARK  157  A    between atoms: _397  and  _399
REMARK  158  A    between atoms: _399  and  _400
REMARK  159  A    between atoms: _399  and  _402
REMARK  160  A    between atoms: _402  and  _403
REMARK  161  A    between atoms: _408  and  _410
REMARK  162  A    between atoms: _410  and  _411
REMARK  163  A    between atoms: _410  and  _413
REMARK  164  A    between atoms: _413  and  _414
REMARK  165  A    between atoms: _424  and  _426
REMARK  166  A    between atoms: _426  and  _427
REMARK  167  A    between atoms: _426  and  _429
REMARK  168  A    between atoms: _429  and  _430
REMARK  169  A    between atoms: _435  and  _437
REMARK  170  A    between atoms: _437  and  _438
REMARK  171  A    between atoms: _437  and  _440
REMARK  172  A    between atoms: _440  and  _441
REMARK  173  A    between atoms: _441  and  _442
REMARK  174  A    between atoms: _442  and  _443
REMARK  175  A    between atoms: _443  and  _444
REMARK  176  A    between atoms: _448  and  _450
REMARK  177  A    between atoms: _450  and  _451
REMARK  178  A    between atoms: _450  and  _453
REMARK  179  A    between atoms: _453  and  _454
REMARK  180  A    between atoms: _460  and  _462
REMARK  181  A    between atoms: _462  and  _463
REMARK  182  A    between atoms: _465  and  _467
REMARK  183  A    between atoms: _467  and  _468
REMARK  184  A    between atoms: _467  and  _470
REMARK  185  A    between atoms: _470  and  _471
REMARK  186  A    between atoms: _473  and  _475
REMARK  187  A    between atoms: _475  and  _476
REMARK  188  A    between atoms: _475  and  _478
REMARK  189  A    between atoms: _478  and  _479
REMARK  190  A    between atoms: _479  and  _480
REMARK  191  A    between atoms: _480  and  _481
REMARK  192  A    between atoms: _481  and  _482
REMARK  193  A    between atoms: _486  and  _488
REMARK  194  A    between atoms: _488  and  _489
REMARK  195  A    between atoms: _488  and  _491
REMARK  196  A    between atoms: _491  and  _492
REMARK  197  A    between atoms: _497  and  _499
REMARK  198  A    between atoms: _499  and  _500
REMARK  199  A    between atoms: _499  and  _502
REMARK  200  A    between atoms: _502  and  _503
REMARK  201  A    between atoms: _503  and  _504
REMARK  202  A    between atoms: _504  and  _505
REMARK  203  A    between atoms: _514  and  _516
REMARK  204  A    between atoms: _516  and  _517
REMARK  205  A    between atoms: _516  and  _519
REMARK  206  A    between atoms: _519  and  _520
REMARK  207  A    between atoms: _520  and  _521
REMARK  208  A    between atoms: _526  and  _528
REMARK  209  A    between atoms: _528  and  _529
REMARK  210  A    between atoms: _528  and  _531
REMARK  211  A    between atoms: _531  and  _532
REMARK  212  A    between atoms: _532  and  _533
REMARK  213  A    between atoms: _538  and  _540
REMARK  214  A    between atoms: _540  and  _541
REMARK  215  A    between atoms: _540  and  _543
REMARK  216  A    between atoms: _543  and  _544
REMARK  217  A    between atoms: _544  and  _545
REMARK  218  A    between atoms: _547  and  _549
REMARK  219  A    between atoms: _549  and  _550
REMARK  220  A    between atoms: _549  and  _552
REMARK  221  A    between atoms: _552  and  _553
REMARK  222  A    between atoms: _555  and  _557
REMARK  223  A    between atoms: _557  and  _558
REMARK  224  A    between atoms: _557  and  _560
REMARK  225  A    between atoms: _560  and  _561
REMARK  226  A    between atoms: _566  and  _567
REMARK  227  A    between atoms: _569  and  _571
REMARK  228  A    between atoms: _571  and  _572
REMARK  229  A    between atoms: _571  and  _574
REMARK  230  A    between atoms: _574  and  _575
REMARK  231  A    between atoms: _585  and  _587
REMARK  232  A    between atoms: _587  and  _588
REMARK  233  A    between atoms: _587  and  _590
REMARK  234  A    between atoms: _590  and  _591
REMARK  235  A    between atoms: _594  and  _596
REMARK  236  A    between atoms: _596  and  _597
REMARK  237  A    between atoms: _600  and  _602
REMARK  238  A    between atoms: _602  and  _603
REMARK  239  A    between atoms: _602  and  _605
REMARK  240  A    between atoms: _605  and  _606
REMARK                            x       y       z     vdW  Elec       q    Type
REMARK                         _______ _______ _______ _____ _____    ______ ____
ROOT
ATOM      1  O   HOH     1     -21.815  15.412  -7.203  0.00  0.00    +0.000 OA
ENDROOT
TORSDOF 0
REMARK  Name = ../refined-set-2016/4ua8/4ua8_pocket.pdb
REMARK  240 active torsions:
REMARK  status: ('A' for Active; 'I' for Inactive)
REMARK    1  A    between atoms: _1  and  _3
REMARK    2  A    between atoms: _3  and  _4
REMARK    3  A    between atoms: _7  and  _8
REMARK    4  A    between atoms: _13  and  _15
REMARK    5  A    between atoms: _15  and  _16
REMARK    6  A    between atoms: _19  and  _21
REMARK    7  A    between atoms: _21  and  _22
REMARK    8  A    between atoms: _21  and  _24
REMARK    9  A    between atoms: _24  and  _25
REMARK   10  A    between atoms: _25  and  _26
REMARK   11  A    between atoms: _29  and  _31
REMARK   12  A    between atoms: _31  and  _32
REMARK   13  A    between atoms: _31  and  _34
REMARK   14  A    between atoms: _34  and  _35
REMARK   15  A    between atoms: _38  and  _40
REMARK   16  A    between atoms: _40  and  _41
REMARK   17  A    between atoms: _40  and  _43
REMARK   18  A    between atoms: _43  and  _44
REMARK   19  A    between atoms: _46  and  _48
REMARK   20  A    between atoms: _48  and  _49
REMARK   21  A    between atoms: _48  and  _51
REMARK   22  A    between atoms: _51  and  _52
REMARK   23  A    between atoms: _54  and  _56
REMARK   24  A    between atoms: _56  and  _57
REMARK   25  A    between atoms: _56  and  _59
REMARK   26  A    between atoms: _59  and  _60
REMARK   27  A    between atoms: _60  and  _61
REMARK   28  A    between atoms: _64  and  _66
REMARK   29  A    between atoms: _66  and  _67
REMARK   30  A    between atoms: _66  and  _69
REMARK   31  A    between atoms: _69  and  _70
REMARK   32  A    between atoms: _72  and  _74
REMARK   33  A    between atoms: _74  and  _75
REMARK   34  A    between atoms: _74  and  _77
REMARK   35  A    between atoms: _77  and  _78
REMARK   36  A    between atoms: _81  and  _83
REMARK   37  A    between atoms: _83  and  _84
REMARK   38  A    between atoms: _87  and  _89
REMARK   39  A    between atoms: _89  and  _90
REMARK   40  A    between atoms: _89  and  _92
REMARK   41  A    between atoms: _92  and  _93
REMARK   42  A    between atoms: _93  and  _94
REMARK   43  A    between atoms: _94  and  _95
REMARK   44  A    between atoms: _95  and  _96
REMARK   45  A    between atoms: _100  and  _102
REMARK   46  A    between atoms: _102  and  _103
REMARK   47  A    between atoms: _102  and  _105
REMARK   48  A    between atoms: _105  and  _106
REMARK   49  A    between atoms: _109  and  _111
REMARK   50  A    between atoms: _111  and  _112
REMARK   51  A    between atoms: _111  and  _114
REMARK   52  A    between atoms: _114  and  _115
REMARK   53  A    between atoms: _115  and  _116
REMARK   54  A    between atoms: _118  and  _120
REMARK   55  A    between atoms: _120  and  _121
REMARK   56  A    between atoms: _120  and  _123
REMARK   57  A    between atoms: _123  and  _124
REMARK   58  A    between atoms: _130  and  _132
REMARK   59  A    between atoms: _132  and  _133
REMARK   60  A    between atoms: _136  and  _138
REMARK   61  A    between atoms: _138  and  _139
REMARK   62  A    between atoms: _138  and  _141
REMARK   63  A    between atoms: _141  and  _142
REMARK   64  A    between atoms: _147  and  _149
REMARK   65  A    between atoms: _149  and  _150
REMARK   66  A    between atoms: _149  and  _152
REMARK   67  A    between atoms: _152  and  _153
REMARK   68  A    between atoms: _156  and  _158
REMARK   69  A    between atoms: _158  and  _159
REMARK   70  A    between atoms: _158  and  _161
REMARK   71  A    between atoms: _161  and  _162
REMARK   72  A    between atoms: _162  and  _163
REMARK   73  A    between atoms: _168  and  _170
REMARK   74  A    between atoms: _170  and  _171
REMARK   75  A    between atoms: _170  and  _173
REMARK   76  A    between atoms: _173  and  _174
REMARK   77  A    between atoms: _178  and  _179
REMARK   78  A    between atoms: _184  and  _186
REMARK   79  A    between atoms: _186  and  _187
REMARK   80  A    between atoms: _186  and  _189
REMARK   81  A    between atoms: _189  and  _190
REMARK   82  A    between atoms: _195  and  _196
REMARK   83  A    between atoms: _198  and  _200
REMARK   84  A    between atoms: _200  and  _201
REMARK   85  A    between atoms: _200  and  _203
REMARK   86  A    between atoms: _203  and  _204
REMARK   87  A    between atoms: _207  and  _209
REMARK   88  A    between atoms: _209  and  _210
REMARK   89  A    between atoms: _209  and  _212
REMARK   90  A    between atoms: _212  and  _213
REMARK   91  A    between atoms: _215  and  _217
REMARK   92  A    between atoms: _217  and  _218
REMARK   93  A    between atoms: _217  and  _220
REMARK   94  A    between atoms: _220  and  _221
REMARK   95  A    between atoms: _226  and  _228
REMARK   96  A    between atoms: _228  and  _229
REMARK   97  A    between atoms: _228  and  _231
REMARK   98  A    between atoms: _231  and  _232
REMARK   99  A    between atoms: _235  and  _237
REMARK  100  A    between atoms: _237  and  _238
REMARK  101  A    between atoms: _237  and  _240
REMARK  102  A    between atoms: _240  and  _241
REMARK  103  A    between atoms: _252  and  _253
REMARK  104  A    between atoms: _258  and  _260
REMARK  105  A    between atoms: _260  and  _261
REMARK  106  A    between atoms: _260  and  _263
REMARK  107  A    between atoms: _263  and  _264
REMARK  108  A    between atoms: _267  and  _269
REMARK  109  A    between atoms: _269  and  _270
REMARK  110  A    between atoms: _269  and  _272
REMARK  111  A    between atoms: _272  and  _273
REMARK  112  A    between atoms: _278  and  _280
REMARK  113  A    between atoms: _280  and  _281
REMARK  114  A    between atoms: _283  and  _285
REMARK  115  A    between atoms: _285  and  _286
REMARK  116  A    between atoms: _285  and  _288
REMARK  117  A    between atoms: _288  and  _289
REMARK  118  A    between atoms: _299  and  _301
REMARK  119  A    between atoms: _301  and  _302
REMARK  120  A    between atoms: _301  and  _304
REMARK  121  A    between atoms: _304  and  _305
REMARK  122  A    between atoms: _310  and  _311
REMARK  123  A    between atoms: _313  and  _315
REMARK  124  A    between atoms: _315  and  _316
REMARK  125  A    between atoms: _315  and  _318
REMARK  126  A    between atoms: _318  and  _319
REMARK  127  A    between atoms: _322  and  _324
REMARK  128  A    between atoms: _324  and  _325
REMARK  129  A    between atoms: _324  and  _327
REMARK  130  A    between atoms: _327  and  _328
REMARK  131  A    between atoms: _333  and  _335
REMARK  132  A    between atoms: _335  and  _336
REMARK  133  A    between atoms: _335  and  _338
REMARK  134  A    between atoms: _338  and  _339
REMARK  135  A    between atoms: _344  and  _346
REMARK  136  A    between atoms: _346  and  _347
REMARK  137  A    between atoms: _346  and  _349
REMARK  138  A    between atoms: _349  and  _350
REMARK  139  A    between atoms: _350  and  _351
REMARK  140  A    between atoms: _354  and  _356
REMARK  141  A    between atoms: _356  and  _357
REMARK  142  A    between atoms: _359  and  _361
REMARK  143  A    between atoms: _361  and  _362
REMARK  144  A    between atoms: _361  and  _364
REMARK  145  A    between atoms: _364  and  _365
REMARK  146  A    between atoms: _367  and  _369
REMARK  147  A    between atoms: _369  and  _370
REMARK  148  A    between atoms: _369  and  _372
REMARK  149  A    between atoms: _372  and  _373
REMARK  150  A    between atoms: _378  and  _379
REMARK  151  A    between atoms: _381  and  _383
REMARK  152  A    between atoms: _383  and  _384
REMARK  153  A    between atoms: _383  and  _386
REMARK  154  A    between atoms: _386  and  _387
REMARK  155  A    between atoms: _392  and  _394
REMARK  156  A    between atoms: _394  and  _395
REMARK  157  A    between atoms: _397  and  _399
REMARK  158  A    between atoms: _399  and  _400
REMARK  159  A    between atoms: _399  and  _402
REMARK  160  A    between atoms: _402  and  _403
REMARK  161  A    between atoms: _408  and  _410
REMARK  162  A    between atoms: _410  and  _411
REMARK  163  A    between atoms: _410  and  _413
REMARK  164  A    between atoms: _413  and  _414
REMARK  165  A    between atoms: _424  and  _426
REMARK  166  A    between atoms: _426  and  _427
REMARK  167  A    between atoms: _426  and  _429
REMARK  168  A    between atoms: _429  and  _430
REMARK  169  A    between atoms: _435  and  _437
REMARK  170  A    between atoms: _437  and  _438
REMARK  171  A    between atoms: _437  and  _440
REMARK  172  A    between atoms: _440  and  _441
REMARK  173  A    between atoms: _441  and  _442
REMARK  174  A    between atoms: _442  and  _443
REMARK  175  A    between atoms: _443  and  _444
REMARK  176  A    between atoms: _448  and  _450
REMARK  177  A    between atoms: _450  and  _451
REMARK  178  A    between atoms: _450  and  _453
REMARK  179  A    between atoms: _453  and  _454
REMARK  180  A    between atoms: _460  and  _462
REMARK  181  A    between atoms: _462  and  _463
REMARK  182  A    between atoms: _465  and  _467
REMARK  183  A    between atoms: _467  and  _468
REMARK  184  A    between atoms: _467  and  _470
REMARK  185  A    between atoms: _470  and  _471
REMARK  186  A    between atoms: _473  and  _475
REMARK  187  A    between atoms: _475  and  _476
REMARK  188  A    between atoms: _475  and  _478
REMARK  189  A    between atoms: _478  and  _479
REMARK  190  A    between atoms: _479  and  _480
REMARK  191  A    between atoms: _480  and  _481
REMARK  192  A    between atoms: _481  and  _482
REMARK  193  A    between atoms: _486  and  _488
REMARK  194  A    between atoms: _488  and  _489
REMARK  195  A    between atoms: _488  and  _491
REMARK  196  A    between atoms: _491  and  _492
REMARK  197  A    between atoms: _497  and  _499
REMARK  198  A    between atoms: _499  and  _500
REMARK  199  A    between atoms: _499  and  _502
REMARK  200  A    between atoms: _502  and  _503
REMARK  201  A    between atoms: _503  and  _504
REMARK  202  A    between atoms: _504  and  _505
REMARK  203  A    between atoms: _514  and  _516
REMARK  204  A    between atoms: _516  and  _517
REMARK  205  A    between atoms: _516  and  _519
REMARK  206  A    between atoms: _519  and  _520
REMARK  207  A    between atoms: _520  and  _521
REMARK  208  A    between atoms: _526  and  _528
REMARK  209  A    between atoms: _528  and  _529
REMARK  210  A    between atoms: _528  and  _531
REMARK  211  A    between atoms: _531  and  _532
REMARK  212  A    between atoms: _532  and  _533
REMARK  213  A    between atoms: _538  and  _540
REMARK  214  A    between atoms: _540  and  _541
REMARK  215  A    between atoms: _540  and  _543
REMARK  216  A    between atoms: _543  and  _544
REMARK  217  A    between atoms: _544  and  _545
REMARK  218  A    between atoms: _547  and  _549
REMARK  219  A    between atoms: _549  and  _550
REMARK  220  A    between atoms: _549  and  _552
REMARK  221  A    between atoms: _552  and  _553
REMARK  222  A    between atoms: _555  and  _557
REMARK  223  A    between atoms: _557  and  _558
REMARK  224  A    between atoms: _557  and  _560
REMARK  225  A    between atoms: _560  and  _561
REMARK  226  A    between atoms: _566  and  _567
REMARK  227  A    between atoms: _569  and  _571
REMARK  228  A    between atoms: _571  and  _572
REMARK  229  A    between atoms: _571  and  _574
REMARK  230  A    between atoms: _574  and  _575
REMARK  231  A    between atoms: _585  and  _587
REMARK  232  A    between atoms: _587  and  _588
REMARK  233  A    between atoms: _587  and  _590
REMARK  234  A    between atoms: _590  and  _591
REMARK  235  A    between atoms: _594  and  _596
REMARK  236  A    between atoms: _596  and  _597
REMARK  237  A    between atoms: _600  and  _602
REMARK  238  A    between atoms: _602  and  _603
REMARK  239  A    between atoms: _602  and  _605
REMARK  240  A    between atoms: _605  and  _606
REMARK                            x       y       z     vdW  Elec       q    Type
REMARK                         _______ _______ _______ _____ _____    ______ ____
ROOT
ATOM      1  O   HOH     1     -19.705   5.662 -10.789  0.00  0.00    +0.000 OA
ENDROOT
TORSDOF 0
REMARK  Name = ../refined-set-2016/4ua8/4ua8_pocket.pdb
REMARK  240 active torsions:
REMARK  status: ('A' for Active; 'I' for Inactive)
REMARK    1  A    between atoms: _1  and  _3
REMARK    2  A    between atoms: _3  and  _4
REMARK    3  A    between atoms: _7  and  _8
REMARK    4  A    between atoms: _13  and  _15
REMARK    5  A    between atoms: _15  and  _16
REMARK    6  A    between atoms: _19  and  _21
REMARK    7  A    between atoms: _21  and  _22
REMARK    8  A    between atoms: _21  and  _24
REMARK    9  A    between atoms: _24  and  _25
REMARK   10  A    between atoms: _25  and  _26
REMARK   11  A    between atoms: _29  and  _31
REMARK   12  A    between atoms: _31  and  _32
REMARK   13  A    between atoms: _31  and  _34
REMARK   14  A    between atoms: _34  and  _35
REMARK   15  A    between atoms: _38  and  _40
REMARK   16  A    between atoms: _40  and  _41
REMARK   17  A    between atoms: _40  and  _43
REMARK   18  A    between atoms: _43  and  _44
REMARK   19  A    between atoms: _46  and  _48
REMARK   20  A    between atoms: _48  and  _49
REMARK   21  A    between atoms: _48  and  _51
REMARK   22  A    between atoms: _51  and  _52
REMARK   23  A    between atoms: _54  and  _56
REMARK   24  A    between atoms: _56  and  _57
REMARK   25  A    between atoms: _56  and  _59
REMARK   26  A    between atoms: _59  and  _60
REMARK   27  A    between atoms: _60  and  _61
REMARK   28  A    between atoms: _64  and  _66
REMARK   29  A    between atoms: _66  and  _67
REMARK   30  A    between atoms: _66  and  _69
REMARK   31  A    between atoms: _69  and  _70
REMARK   32  A    between atoms: _72  and  _74
REMARK   33  A    between atoms: _74  and  _75
REMARK   34  A    between atoms: _74  and  _77
REMARK   35  A    between atoms: _77  and  _78
REMARK   36  A    between atoms: _81  and  _83
REMARK   37  A    between atoms: _83  and  _84
REMARK   38  A    between atoms: _87  and  _89
REMARK   39  A    between atoms: _89  and  _90
REMARK   40  A    between atoms: _89  and  _92
REMARK   41  A    between atoms: _92  and  _93
REMARK   42  A    between atoms: _93  and  _94
REMARK   43  A    between atoms: _94  and  _95
REMARK   44  A    between atoms: _95  and  _96
REMARK   45  A    between atoms: _100  and  _102
REMARK   46  A    between atoms: _102  and  _103
REMARK   47  A    between atoms: _102  and  _105
REMARK   48  A    between atoms: _105  and  _106
REMARK   49  A    between atoms: _109  and  _111
REMARK   50  A    between atoms: _111  and  _112
REMARK   51  A    between atoms: _111  and  _114
REMARK   52  A    between atoms: _114  and  _115
REMARK   53  A    between atoms: _115  and  _116
REMARK   54  A    between atoms: _118  and  _120
REMARK   55  A    between atoms: _120  and  _121
REMARK   56  A    between atoms: _120  and  _123
REMARK   57  A    between atoms: _123  and  _124
REMARK   58  A    between atoms: _130  and  _132
REMARK   59  A    between atoms: _132  and  _133
REMARK   60  A    between atoms: _136  and  _138
REMARK   61  A    between atoms: _138  and  _139
REMARK   62  A    between atoms: _138  and  _141
REMARK   63  A    between atoms: _141  and  _142
REMARK   64  A    between atoms: _147  and  _149
REMARK   65  A    between atoms: _149  and  _150
REMARK   66  A    between atoms: _149  and  _152
REMARK   67  A    between atoms: _152  and  _153
REMARK   68  A    between atoms: _156  and  _158
REMARK   69  A    between atoms: _158  and  _159
REMARK   70  A    between atoms: _158  and  _161
REMARK   71  A    between atoms: _161  and  _162
REMARK   72  A    between atoms: _162  and  _163
REMARK   73  A    between atoms: _168  and  _170
REMARK   74  A    between atoms: _170  and  _171
REMARK   75  A    between atoms: _170  and  _173
REMARK   76  A    between atoms: _173  and  _174
REMARK   77  A    between atoms: _178  and  _179
REMARK   78  A    between atoms: _184  and  _186
REMARK   79  A    between atoms: _186  and  _187
REMARK   80  A    between atoms: _186  and  _189
REMARK   81  A    between atoms: _189  and  _190
REMARK   82  A    between atoms: _195  and  _196
REMARK   83  A    between atoms: _198  and  _200
REMARK   84  A    between atoms: _200  and  _201
REMARK   85  A    between atoms: _200  and  _203
REMARK   86  A    between atoms: _203  and  _204
REMARK   87  A    between atoms: _207  and  _209
REMARK   88  A    between atoms: _209  and  _210
REMARK   89  A    between atoms: _209  and  _212
REMARK   90  A    between atoms: _212  and  _213
REMARK   91  A    between atoms: _215  and  _217
REMARK   92  A    between atoms: _217  and  _218
REMARK   93  A    between atoms: _217  and  _220
REMARK   94  A    between atoms: _220  and  _221
REMARK   95  A    between atoms: _226  and  _228
REMARK   96  A    between atoms: _228  and  _229
REMARK   97  A    between atoms: _228  and  _231
REMARK   98  A    between atoms: _231  and  _232
REMARK   99  A    between atoms: _235  and  _237
REMARK  100  A    between atoms: _237  and  _238
REMARK  101  A    between atoms: _237  and  _240
REMARK  102  A    between atoms: _240  and  _241
REMARK  103  A    between atoms: _252  and  _253
REMARK  104  A    between atoms: _258  and  _260
REMARK  105  A    between atoms: _260  and  _261
REMARK  106  A    between atoms: _260  and  _263
REMARK  107  A    between atoms: _263  and  _264
REMARK  108  A    between atoms: _267  and  _269
REMARK  109  A    between atoms: _269  and  _270
REMARK  110  A    between atoms: _269  and  _272
REMARK  111  A    between atoms: _272  and  _273
REMARK  112  A    between atoms: _278  and  _280
REMARK  113  A    between atoms: _280  and  _281
REMARK  114  A    between atoms: _283  and  _285
REMARK  115  A    between atoms: _285  and  _286
REMARK  116  A    between atoms: _285  and  _288
REMARK  117  A    between atoms: _288  and  _289
REMARK  118  A    between atoms: _299  and  _301
REMARK  119  A    between atoms: _301  and  _302
REMARK  120  A    between atoms: _301  and  _304
REMARK  121  A    between atoms: _304  and  _305
REMARK  122  A    between atoms: _310  and  _311
REMARK  123  A    between atoms: _313  and  _315
REMARK  124  A    between atoms: _315  and  _316
REMARK  125  A    between atoms: _315  and  _318
REMARK  126  A    between atoms: _318  and  _319
REMARK  127  A    between atoms: _322  and  _324
REMARK  128  A    between atoms: _324  and  _325
REMARK  129  A    between atoms: _324  and  _327
REMARK  130  A    between atoms: _327  and  _328
REMARK  131  A    between atoms: _333  and  _335
REMARK  132  A    between atoms: _335  and  _336
REMARK  133  A    between atoms: _335  and  _338
REMARK  134  A    between atoms: _338  and  _339
REMARK  135  A    between atoms: _344  and  _346
REMARK  136  A    between atoms: _346  and  _347
REMARK  137  A    between atoms: _346  and  _349
REMARK  138  A    between atoms: _349  and  _350
REMARK  139  A    between atoms: _350  and  _351
REMARK  140  A    between atoms: _354  and  _356
REMARK  141  A    between atoms: _356  and  _357
REMARK  142  A    between atoms: _359  and  _361
REMARK  143  A    between atoms: _361  and  _362
REMARK  144  A    between atoms: _361  and  _364
REMARK  145  A    between atoms: _364  and  _365
REMARK  146  A    between atoms: _367  and  _369
REMARK  147  A    between atoms: _369  and  _370
REMARK  148  A    between atoms: _369  and  _372
REMARK  149  A    between atoms: _372  and  _373
REMARK  150  A    between atoms: _378  and  _379
REMARK  151  A    between atoms: _381  and  _383
REMARK  152  A    between atoms: _383  and  _384
REMARK  153  A    between atoms: _383  and  _386
REMARK  154  A    between atoms: _386  and  _387
REMARK  155  A    between atoms: _392  and  _394
REMARK  156  A    between atoms: _394  and  _395
REMARK  157  A    between atoms: _397  and  _399
REMARK  158  A    between atoms: _399  and  _400
REMARK  159  A    between atoms: _399  and  _402
REMARK  160  A    between atoms: _402  and  _403
REMARK  161  A    between atoms: _408  and  _410
REMARK  162  A    between atoms: _410  and  _411
REMARK  163  A    between atoms: _410  and  _413
REMARK  164  A    between atoms: _413  and  _414
REMARK  165  A    between atoms: _424  and  _426
REMARK  166  A    between atoms: _426  and  _427
REMARK  167  A    between atoms: _426  and  _429
REMARK  168  A    between atoms: _429  and  _430
REMARK  169  A    between atoms: _435  and  _437
REMARK  170  A    between atoms: _437  and  _438
REMARK  171  A    between atoms: _437  and  _440
REMARK  172  A    between atoms: _440  and  _441
REMARK  173  A    between atoms: _441  and  _442
REMARK  174  A    between atoms: _442  and  _443
REMARK  175  A    between atoms: _443  and  _444
REMARK  176  A    between atoms: _448  and  _450
REMARK  177  A    between atoms: _450  and  _451
REMARK  178  A    between atoms: _450  and  _453
REMARK  179  A    between atoms: _453  and  _454
REMARK  180  A    between atoms: _460  and  _462
REMARK  181  A    between atoms: _462  and  _463
REMARK  182  A    between atoms: _465  and  _467
REMARK  183  A    between atoms: _467  and  _468
REMARK  184  A    between atoms: _467  and  _470
REMARK  185  A    between atoms: _470  and  _471
REMARK  186  A    between atoms: _473  and  _475
REMARK  187  A    between atoms: _475  and  _476
REMARK  188  A    between atoms: _475  and  _478
REMARK  189  A    between atoms: _478  and  _479
REMARK  190  A    between atoms: _479  and  _480
REMARK  191  A    between atoms: _480  and  _481
REMARK  192  A    between atoms: _481  and  _482
REMARK  193  A    between atoms: _486  and  _488
REMARK  194  A    between atoms: _488  and  _489
REMARK  195  A    between atoms: _488  and  _491
REMARK  196  A    between atoms: _491  and  _492
REMARK  197  A    between atoms: _497  and  _499
REMARK  198  A    between atoms: _499  and  _500
REMARK  199  A    between atoms: _499  and  _502
REMARK  200  A    between atoms: _502  and  _503
REMARK  201  A    between atoms: _503  and  _504
REMARK  202  A    between atoms: _504  and  _505
REMARK  203  A    between atoms: _514  and  _516
REMARK  204  A    between atoms: _516  and  _517
REMARK  205  A    between atoms: _516  and  _519
REMARK  206  A    between atoms: _519  and  _520
REMARK  207  A    between atoms: _520  and  _521
REMARK  208  A    between atoms: _526  and  _528
REMARK  209  A    between atoms: _528  and  _529
REMARK  210  A    between atoms: _528  and  _531
REMARK  211  A    between atoms: _531  and  _532
REMARK  212  A    between atoms: _532  and  _533
REMARK  213  A    between atoms: _538  and  _540
REMARK  214  A    between atoms: _540  and  _541
REMARK  215  A    between atoms: _540  and  _543
REMARK  216  A    between atoms: _543  and  _544
REMARK  217  A    between atoms: _544  and  _545
REMARK  218  A    between atoms: _547  and  _549
REMARK  219  A    between atoms: _549  and  _550
REMARK  220  A    between atoms: _549  and  _552
REMARK  221  A    between atoms: _552  and  _553
REMARK  222  A    between atoms: _555  and  _557
REMARK  223  A    between atoms: _557  and  _558
REMARK  224  A    between atoms: _557  and  _560
REMARK  225  A    between atoms: _560  and  _561
REMARK  226  A    between atoms: _566  and  _567
REMARK  227  A    between atoms: _569  and  _571
REMARK  228  A    between atoms: _571  and  _572
REMARK  229  A    between atoms: _571  and  _574
REMARK  230  A    between atoms: _574  and  _575
REMARK  231  A    between atoms: _585  and  _587
REMARK  232  A    between atoms: _587  and  _588
REMARK  233  A    between atoms: _587  and  _590
REMARK  234  A    between atoms: _590  and  _591
REMARK  235  A    between atoms: _594  and  _596
REMARK  236  A    between atoms: _596  and  _597
REMARK  237  A    between atoms: _600  and  _602
REMARK  238  A    between atoms: _602  and  _603
REMARK  239  A    between atoms: _602  and  _605
REMARK  240  A    between atoms: _605  and  _606
REMARK                            x       y       z     vdW  Elec       q    Type
REMARK                         _______ _______ _______ _____ _____    ______ ____
ROOT
ATOM      1  O   HOH     1     -38.052   9.717  -4.629  0.00  0.00    +0.000 OA
ENDROOT
TORSDOF 0
REMARK  Name = ../refined-set-2016/4ua8/4ua8_pocket.pdb
REMARK  240 active torsions:
REMARK  status: ('A' for Active; 'I' for Inactive)
REMARK    1  A    between atoms: _1  and  _3
REMARK    2  A    between atoms: _3  and  _4
REMARK    3  A    between atoms: _7  and  _8
REMARK    4  A    between atoms: _13  and  _15
REMARK    5  A    between atoms: _15  and  _16
REMARK    6  A    between atoms: _19  and  _21
REMARK    7  A    between atoms: _21  and  _22
REMARK    8  A    between atoms: _21  and  _24
REMARK    9  A    between atoms: _24  and  _25
REMARK   10  A    between atoms: _25  and  _26
REMARK   11  A    between atoms: _29  and  _31
REMARK   12  A    between atoms: _31  and  _32
REMARK   13  A    between atoms: _31  and  _34
REMARK   14  A    between atoms: _34  and  _35
REMARK   15  A    between atoms: _38  and  _40
REMARK   16  A    between atoms: _40  and  _41
REMARK   17  A    between atoms: _40  and  _43
REMARK   18  A    between atoms: _43  and  _44
REMARK   19  A    between atoms: _46  and  _48
REMARK   20  A    between atoms: _48  and  _49
REMARK   21  A    between atoms: _48  and  _51
REMARK   22  A    between atoms: _51  and  _52
REMARK   23  A    between atoms: _54  and  _56
REMARK   24  A    between atoms: _56  and  _57
REMARK   25  A    between atoms: _56  and  _59
REMARK   26  A    between atoms: _59  and  _60
REMARK   27  A    between atoms: _60  and  _61
REMARK   28  A    between atoms: _64  and  _66
REMARK   29  A    between atoms: _66  and  _67
REMARK   30  A    between atoms: _66  and  _69
REMARK   31  A    between atoms: _69  and  _70
REMARK   32  A    between atoms: _72  and  _74
REMARK   33  A    between atoms: _74  and  _75
REMARK   34  A    between atoms: _74  and  _77
REMARK   35  A    between atoms: _77  and  _78
REMARK   36  A    between atoms: _81  and  _83
REMARK   37  A    between atoms: _83  and  _84
REMARK   38  A    between atoms: _87  and  _89
REMARK   39  A    between atoms: _89  and  _90
REMARK   40  A    between atoms: _89  and  _92
REMARK   41  A    between atoms: _92  and  _93
REMARK   42  A    between atoms: _93  and  _94
REMARK   43  A    between atoms: _94  and  _95
REMARK   44  A    between atoms: _95  and  _96
REMARK   45  A    between atoms: _100  and  _102
REMARK   46  A    between atoms: _102  and  _103
REMARK   47  A    between atoms: _102  and  _105
REMARK   48  A    between atoms: _105  and  _106
REMARK   49  A    between atoms: _109  and  _111
REMARK   50  A    between atoms: _111  and  _112
REMARK   51  A    between atoms: _111  and  _114
REMARK   52  A    between atoms: _114  and  _115
REMARK   53  A    between atoms: _115  and  _116
REMARK   54  A    between atoms: _118  and  _120
REMARK   55  A    between atoms: _120  and  _121
REMARK   56  A    between atoms: _120  and  _123
REMARK   57  A    between atoms: _123  and  _124
REMARK   58  A    between atoms: _130  and  _132
REMARK   59  A    between atoms: _132  and  _133
REMARK   60  A    between atoms: _136  and  _138
REMARK   61  A    between atoms: _138  and  _139
REMARK   62  A    between atoms: _138  and  _141
REMARK   63  A    between atoms: _141  and  _142
REMARK   64  A    between atoms: _147  and  _149
REMARK   65  A    between atoms: _149  and  _150
REMARK   66  A    between atoms: _149  and  _152
REMARK   67  A    between atoms: _152  and  _153
REMARK   68  A    between atoms: _156  and  _158
REMARK   69  A    between atoms: _158  and  _159
REMARK   70  A    between atoms: _158  and  _161
REMARK   71  A    between atoms: _161  and  _162
REMARK   72  A    between atoms: _162  and  _163
REMARK   73  A    between atoms: _168  and  _170
REMARK   74  A    between atoms: _170  and  _171
REMARK   75  A    between atoms: _170  and  _173
REMARK   76  A    between atoms: _173  and  _174
REMARK   77  A    between atoms: _178  and  _179
REMARK   78  A    between atoms: _184  and  _186
REMARK   79  A    between atoms: _186  and  _187
REMARK   80  A    between atoms: _186  and  _189
REMARK   81  A    between atoms: _189  and  _190
REMARK   82  A    between atoms: _195  and  _196
REMARK   83  A    between atoms: _198  and  _200
REMARK   84  A    between atoms: _200  and  _201
REMARK   85  A    between atoms: _200  and  _203
REMARK   86  A    between atoms: _203  and  _204
REMARK   87  A    between atoms: _207  and  _209
REMARK   88  A    between atoms: _209  and  _210
REMARK   89  A    between atoms: _209  and  _212
REMARK   90  A    between atoms: _212  and  _213
REMARK   91  A    between atoms: _215  and  _217
REMARK   92  A    between atoms: _217  and  _218
REMARK   93  A    between atoms: _217  and  _220
REMARK   94  A    between atoms: _220  and  _221
REMARK   95  A    between atoms: _226  and  _228
REMARK   96  A    between atoms: _228  and  _229
REMARK   97  A    between atoms: _228  and  _231
REMARK   98  A    between atoms: _231  and  _232
REMARK   99  A    between atoms: _235  and  _237
REMARK  100  A    between atoms: _237  and  _238
REMARK  101  A    between atoms: _237  and  _240
REMARK  102  A    between atoms: _240  and  _241
REMARK  103  A    between atoms: _252  and  _253
REMARK  104  A    between atoms: _258  and  _260
REMARK  105  A    between atoms: _260  and  _261
REMARK  106  A    between atoms: _260  and  _263
REMARK  107  A    between atoms: _263  and  _264
REMARK  108  A    between atoms: _267  and  _269
REMARK  109  A    between atoms: _269  and  _270
REMARK  110  A    between atoms: _269  and  _272
REMARK  111  A    between atoms: _272  and  _273
REMARK  112  A    between atoms: _278  and  _280
REMARK  113  A    between atoms: _280  and  _281
REMARK  114  A    between atoms: _283  and  _285
REMARK  115  A    between atoms: _285  and  _286
REMARK  116  A    between atoms: _285  and  _288
REMARK  117  A    between atoms: _288  and  _289
REMARK  118  A    between atoms: _299  and  _301
REMARK  119  A    between atoms: _301  and  _302
REMARK  120  A    between atoms: _301  and  _304
REMARK  121  A    between atoms: _304  and  _305
REMARK  122  A    between atoms: _310  and  _311
REMARK  123  A    between atoms: _313  and  _315
REMARK  124  A    between atoms: _315  and  _316
REMARK  125  A    between atoms: _315  and  _318
REMARK  126  A    between atoms: _318  and  _319
REMARK  127  A    between atoms: _322  and  _324
REMARK  128  A    between atoms: _324  and  _325
REMARK  129  A    between atoms: _324  and  _327
REMARK  130  A    between atoms: _327  and  _328
REMARK  131  A    between atoms: _333  and  _335
REMARK  132  A    between atoms: _335  and  _336
REMARK  133  A    between atoms: _335  and  _338
REMARK  134  A    between atoms: _338  and  _339
REMARK  135  A    between atoms: _344  and  _346
REMARK  136  A    between atoms: _346  and  _347
REMARK  137  A    between atoms: _346  and  _349
REMARK  138  A    between atoms: _349  and  _350
REMARK  139  A    between atoms: _350  and  _351
REMARK  140  A    between atoms: _354  and  _356
REMARK  141  A    between atoms: _356  and  _357
REMARK  142  A    between atoms: _359  and  _361
REMARK  143  A    between atoms: _361  and  _362
REMARK  144  A    between atoms: _361  and  _364
REMARK  145  A    between atoms: _364  and  _365
REMARK  146  A    between atoms: _367  and  _369
REMARK  147  A    between atoms: _369  and  _370
REMARK  148  A    between atoms: _369  and  _372
REMARK  149  A    between atoms: _372  and  _373
REMARK  150  A    between atoms: _378  and  _379
REMARK  151  A    between atoms: _381  and  _383
REMARK  152  A    between atoms: _383  and  _384
REMARK  153  A    between atoms: _383  and  _386
REMARK  154  A    between atoms: _386  and  _387
REMARK  155  A    between atoms: _392  and  _394
REMARK  156  A    between atoms: _394  and  _395
REMARK  157  A    between atoms: _397  and  _399
REMARK  158  A    between atoms: _399  and  _400
REMARK  159  A    between atoms: _399  and  _402
REMARK  160  A    between atoms: _402  and  _403
REMARK  161  A    between atoms: _408  and  _410
REMARK  162  A    between atoms: _410  and  _411
REMARK  163  A    between atoms: _410  and  _413
REMARK  164  A    between atoms: _413  and  _414
REMARK  165  A    between atoms: _424  and  _426
REMARK  166  A    between atoms: _426  and  _427
REMARK  167  A    between atoms: _426  and  _429
REMARK  168  A    between atoms: _429  and  _430
REMARK  169  A    between atoms: _435  and  _437
REMARK  170  A    between atoms: _437  and  _438
REMARK  171  A    between atoms: _437  and  _440
REMARK  172  A    between atoms: _440  and  _441
REMARK  173  A    between atoms: _441  and  _442
REMARK  174  A    between atoms: _442  and  _443
REMARK  175  A    between atoms: _443  and  _444
REMARK  176  A    between atoms: _448  and  _450
REMARK  177  A    between atoms: _450  and  _451
REMARK  178  A    between atoms: _450  and  _453
REMARK  179  A    between atoms: _453  and  _454
REMARK  180  A    between atoms: _460  and  _462
REMARK  181  A    between atoms: _462  and  _463
REMARK  182  A    between atoms: _465  and  _467
REMARK  183  A    between atoms: _467  and  _468
REMARK  184  A    between atoms: _467  and  _470
REMARK  185  A    between atoms: _470  and  _471
REMARK  186  A    between atoms: _473  and  _475
REMARK  187  A    between atoms: _475  and  _476
REMARK  188  A    between atoms: _475  and  _478
REMARK  189  A    between atoms: _478  and  _479
REMARK  190  A    between atoms: _479  and  _480
REMARK  191  A    between atoms: _480  and  _481
REMARK  192  A    between atoms: _481  and  _482
REMARK  193  A    between atoms: _486  and  _488
REMARK  194  A    between atoms: _488  and  _489
REMARK  195  A    between atoms: _488  and  _491
REMARK  196  A    between atoms: _491  and  _492
REMARK  197  A    between atoms: _497  and  _499
REMARK  198  A    between atoms: _499  and  _500
REMARK  199  A    between atoms: _499  and  _502
REMARK  200  A    between atoms: _502  and  _503
REMARK  201  A    between atoms: _503  and  _504
REMARK  202  A    between atoms: _504  and  _505
REMARK  203  A    between atoms: _514  and  _516
REMARK  204  A    between atoms: _516  and  _517
REMARK  205  A    between atoms: _516  and  _519
REMARK  206  A    between atoms: _519  and  _520
REMARK  207  A    between atoms: _520  and  _521
REMARK  208  A    between atoms: _526  and  _528
REMARK  209  A    between atoms: _528  and  _529
REMARK  210  A    between atoms: _528  and  _531
REMARK  211  A    between atoms: _531  and  _532
REMARK  212  A    between atoms: _532  and  _533
REMARK  213  A    between atoms: _538  and  _540
REMARK  214  A    between atoms: _540  and  _541
REMARK  215  A    between atoms: _540  and  _543
REMARK  216  A    between atoms: _543  and  _544
REMARK  217  A    between atoms: _544  and  _545
REMARK  218  A    between atoms: _547  and  _549
REMARK  219  A    between atoms: _549  and  _550
REMARK  220  A    between atoms: _549  and  _552
REMARK  221  A    between atoms: _552  and  _553
REMARK  222  A    between atoms: _555  and  _557
REMARK  223  A    between atoms: _557  and  _558
REMARK  224  A    between atoms: _557  and  _560
REMARK  225  A    between atoms: _560  and  _561
REMARK  226  A    between atoms: _566  and  _567
REMARK  227  A    between atoms: _569  and  _571
REMARK  228  A    between atoms: _571  and  _572
REMARK  229  A    between atoms: _571  and  _574
REMARK  230  A    between atoms: _574  and  _575
REMARK  231  A    between atoms: _585  and  _587
REMARK  232  A    between atoms: _587  and  _588
REMARK  233  A    between atoms: _587  and  _590
REMARK  234  A    between atoms: _590  and  _591
REMARK  235  A    between atoms: _594  and  _596
REMARK  236  A    between atoms: _596  and  _597
REMARK  237  A    between atoms: _600  and  _602
REMARK  238  A    between atoms: _602  and  _603
REMARK  239  A    between atoms: _602  and  _605
REMARK  240  A    between atoms: _605  and  _606
REMARK                            x       y       z     vdW  Elec       q    Type
REMARK                         _______ _______ _______ _____ _____    ______ ____
ROOT
ATOM      1  O   HOH     1     -22.270   5.080  -7.939  0.00  0.00    +0.000 OA
ENDROOT
TORSDOF 0
REMARK  Name = ../refined-set-2016/4ua8/4ua8_pocket.pdb
REMARK  240 active torsions:
REMARK  status: ('A' for Active; 'I' for Inactive)
REMARK    1  A    between atoms: _1  and  _3
REMARK    2  A    between atoms: _3  and  _4
REMARK    3  A    between atoms: _7  and  _8
REMARK    4  A    between atoms: _13  and  _15
REMARK    5  A    between atoms: _15  and  _16
REMARK    6  A    between atoms: _19  and  _21
REMARK    7  A    between atoms: _21  and  _22
REMARK    8  A    between atoms: _21  and  _24
REMARK    9  A    between atoms: _24  and  _25
REMARK   10  A    between atoms: _25  and  _26
REMARK   11  A    between atoms: _29  and  _31
REMARK   12  A    between atoms: _31  and  _32
REMARK   13  A    between atoms: _31  and  _34
REMARK   14  A    between atoms: _34  and  _35
REMARK   15  A    between atoms: _38  and  _40
REMARK   16  A    between atoms: _40  and  _41
REMARK   17  A    between atoms: _40  and  _43
REMARK   18  A    between atoms: _43  and  _44
REMARK   19  A    between atoms: _46  and  _48
REMARK   20  A    between atoms: _48  and  _49
REMARK   21  A    between atoms: _48  and  _51
REMARK   22  A    between atoms: _51  and  _52
REMARK   23  A    between atoms: _54  and  _56
REMARK   24  A    between atoms: _56  and  _57
REMARK   25  A    between atoms: _56  and  _59
REMARK   26  A    between atoms: _59  and  _60
REMARK   27  A    between atoms: _60  and  _61
REMARK   28  A    between atoms: _64  and  _66
REMARK   29  A    between atoms: _66  and  _67
REMARK   30  A    between atoms: _66  and  _69
REMARK   31  A    between atoms: _69  and  _70
REMARK   32  A    between atoms: _72  and  _74
REMARK   33  A    between atoms: _74  and  _75
REMARK   34  A    between atoms: _74  and  _77
REMARK   35  A    between atoms: _77  and  _78
REMARK   36  A    between atoms: _81  and  _83
REMARK   37  A    between atoms: _83  and  _84
REMARK   38  A    between atoms: _87  and  _89
REMARK   39  A    between atoms: _89  and  _90
REMARK   40  A    between atoms: _89  and  _92
REMARK   41  A    between atoms: _92  and  _93
REMARK   42  A    between atoms: _93  and  _94
REMARK   43  A    between atoms: _94  and  _95
REMARK   44  A    between atoms: _95  and  _96
REMARK   45  A    between atoms: _100  and  _102
REMARK   46  A    between atoms: _102  and  _103
REMARK   47  A    between atoms: _102  and  _105
REMARK   48  A    between atoms: _105  and  _106
REMARK   49  A    between atoms: _109  and  _111
REMARK   50  A    between atoms: _111  and  _112
REMARK   51  A    between atoms: _111  and  _114
REMARK   52  A    between atoms: _114  and  _115
REMARK   53  A    between atoms: _115  and  _116
REMARK   54  A    between atoms: _118  and  _120
REMARK   55  A    between atoms: _120  and  _121
REMARK   56  A    between atoms: _120  and  _123
REMARK   57  A    between atoms: _123  and  _124
REMARK   58  A    between atoms: _130  and  _132
REMARK   59  A    between atoms: _132  and  _133
REMARK   60  A    between atoms: _136  and  _138
REMARK   61  A    between atoms: _138  and  _139
REMARK   62  A    between atoms: _138  and  _141
REMARK   63  A    between atoms: _141  and  _142
REMARK   64  A    between atoms: _147  and  _149
REMARK   65  A    between atoms: _149  and  _150
REMARK   66  A    between atoms: _149  and  _152
REMARK   67  A    between atoms: _152  and  _153
REMARK   68  A    between atoms: _156  and  _158
REMARK   69  A    between atoms: _158  and  _159
REMARK   70  A    between atoms: _158  and  _161
REMARK   71  A    between atoms: _161  and  _162
REMARK   72  A    between atoms: _162  and  _163
REMARK   73  A    between atoms: _168  and  _170
REMARK   74  A    between atoms: _170  and  _171
REMARK   75  A    between atoms: _170  and  _173
REMARK   76  A    between atoms: _173  and  _174
REMARK   77  A    between atoms: _178  and  _179
REMARK   78  A    between atoms: _184  and  _186
REMARK   79  A    between atoms: _186  and  _187
REMARK   80  A    between atoms: _186  and  _189
REMARK   81  A    between atoms: _189  and  _190
REMARK   82  A    between atoms: _195  and  _196
REMARK   83  A    between atoms: _198  and  _200
REMARK   84  A    between atoms: _200  and  _201
REMARK   85  A    between atoms: _200  and  _203
REMARK   86  A    between atoms: _203  and  _204
REMARK   87  A    between atoms: _207  and  _209
REMARK   88  A    between atoms: _209  and  _210
REMARK   89  A    between atoms: _209  and  _212
REMARK   90  A    between atoms: _212  and  _213
REMARK   91  A    between atoms: _215  and  _217
REMARK   92  A    between atoms: _217  and  _218
REMARK   93  A    between atoms: _217  and  _220
REMARK   94  A    between atoms: _220  and  _221
REMARK   95  A    between atoms: _226  and  _228
REMARK   96  A    between atoms: _228  and  _229
REMARK   97  A    between atoms: _228  and  _231
REMARK   98  A    between atoms: _231  and  _232
REMARK   99  A    between atoms: _235  and  _237
REMARK  100  A    between atoms: _237  and  _238
REMARK  101  A    between atoms: _237  and  _240
REMARK  102  A    between atoms: _240  and  _241
REMARK  103  A    between atoms: _252  and  _253
REMARK  104  A    between atoms: _258  and  _260
REMARK  105  A    between atoms: _260  and  _261
REMARK  106  A    between atoms: _260  and  _263
REMARK  107  A    between atoms: _263  and  _264
REMARK  108  A    between atoms: _267  and  _269
REMARK  109  A    between atoms: _269  and  _270
REMARK  110  A    between atoms: _269  and  _272
REMARK  111  A    between atoms: _272  and  _273
REMARK  112  A    between atoms: _278  and  _280
REMARK  113  A    between atoms: _280  and  _281
REMARK  114  A    between atoms: _283  and  _285
REMARK  115  A    between atoms: _285  and  _286
REMARK  116  A    between atoms: _285  and  _288
REMARK  117  A    between atoms: _288  and  _289
REMARK  118  A    between atoms: _299  and  _301
REMARK  119  A    between atoms: _301  and  _302
REMARK  120  A    between atoms: _301  and  _304
REMARK  121  A    between atoms: _304  and  _305
REMARK  122  A    between atoms: _310  and  _311
REMARK  123  A    between atoms: _313  and  _315
REMARK  124  A    between atoms: _315  and  _316
REMARK  125  A    between atoms: _315  and  _318
REMARK  126  A    between atoms: _318  and  _319
REMARK  127  A    between atoms: _322  and  _324
REMARK  128  A    between atoms: _324  and  _325
REMARK  129  A    between atoms: _324  and  _327
REMARK  130  A    between atoms: _327  and  _328
REMARK  131  A    between atoms: _333  and  _335
REMARK  132  A    between atoms: _335  and  _336
REMARK  133  A    between atoms: _335  and  _338
REMARK  134  A    between atoms: _338  and  _339
REMARK  135  A    between atoms: _344  and  _346
REMARK  136  A    between atoms: _346  and  _347
REMARK  137  A    between atoms: _346  and  _349
REMARK  138  A    between atoms: _349  and  _350
REMARK  139  A    between atoms: _350  and  _351
REMARK  140  A    between atoms: _354  and  _356
REMARK  141  A    between atoms: _356  and  _357
REMARK  142  A    between atoms: _359  and  _361
REMARK  143  A    between atoms: _361  and  _362
REMARK  144  A    between atoms: _361  and  _364
REMARK  145  A    between atoms: _364  and  _365
REMARK  146  A    between atoms: _367  and  _369
REMARK  147  A    between atoms: _369  and  _370
REMARK  148  A    between atoms: _369  and  _372
REMARK  149  A    between atoms: _372  and  _373
REMARK  150  A    between atoms: _378  and  _379
REMARK  151  A    between atoms: _381  and  _383
REMARK  152  A    between atoms: _383  and  _384
REMARK  153  A    between atoms: _383  and  _386
REMARK  154  A    between atoms: _386  and  _387
REMARK  155  A    between atoms: _392  and  _394
REMARK  156  A    between atoms: _394  and  _395
REMARK  157  A    between atoms: _397  and  _399
REMARK  158  A    between atoms: _399  and  _400
REMARK  159  A    between atoms: _399  and  _402
REMARK  160  A    between atoms: _402  and  _403
REMARK  161  A    between atoms: _408  and  _410
REMARK  162  A    between atoms: _410  and  _411
REMARK  163  A    between atoms: _410  and  _413
REMARK  164  A    between atoms: _413  and  _414
REMARK  165  A    between atoms: _424  and  _426
REMARK  166  A    between atoms: _426  and  _427
REMARK  167  A    between atoms: _426  and  _429
REMARK  168  A    between atoms: _429  and  _430
REMARK  169  A    between atoms: _435  and  _437
REMARK  170  A    between atoms: _437  and  _438
REMARK  171  A    between atoms: _437  and  _440
REMARK  172  A    between atoms: _440  and  _441
REMARK  173  A    between atoms: _441  and  _442
REMARK  174  A    between atoms: _442  and  _443
REMARK  175  A    between atoms: _443  and  _444
REMARK  176  A    between atoms: _448  and  _450
REMARK  177  A    between atoms: _450  and  _451
REMARK  178  A    between atoms: _450  and  _453
REMARK  179  A    between atoms: _453  and  _454
REMARK  180  A    between atoms: _460  and  _462
REMARK  181  A    between atoms: _462  and  _463
REMARK  182  A    between atoms: _465  and  _467
REMARK  183  A    between atoms: _467  and  _468
REMARK  184  A    between atoms: _467  and  _470
REMARK  185  A    between atoms: _470  and  _471
REMARK  186  A    between atoms: _473  and  _475
REMARK  187  A    between atoms: _475  and  _476
REMARK  188  A    between atoms: _475  and  _478
REMARK  189  A    between atoms: _478  and  _479
REMARK  190  A    between atoms: _479  and  _480
REMARK  191  A    between atoms: _480  and  _481
REMARK  192  A    between atoms: _481  and  _482
REMARK  193  A    between atoms: _486  and  _488
REMARK  194  A    between atoms: _488  and  _489
REMARK  195  A    between atoms: _488  and  _491
REMARK  196  A    between atoms: _491  and  _492
REMARK  197  A    between atoms: _497  and  _499
REMARK  198  A    between atoms: _499  and  _500
REMARK  199  A    between atoms: _499  and  _502
REMARK  200  A    between atoms: _502  and  _503
REMARK  201  A    between atoms: _503  and  _504
REMARK  202  A    between atoms: _504  and  _505
REMARK  203  A    between atoms: _514  and  _516
REMARK  204  A    between atoms: _516  and  _517
REMARK  205  A    between atoms: _516  and  _519
REMARK  206  A    between atoms: _519  and  _520
REMARK  207  A    between atoms: _520  and  _521
REMARK  208  A    between atoms: _526  and  _528
REMARK  209  A    between atoms: _528  and  _529
REMARK  210  A    between atoms: _528  and  _531
REMARK  211  A    between atoms: _531  and  _532
REMARK  212  A    between atoms: _532  and  _533
REMARK  213  A    between atoms: _538  and  _540
REMARK  214  A    between atoms: _540  and  _541
REMARK  215  A    between atoms: _540  and  _543
REMARK  216  A    between atoms: _543  and  _544
REMARK  217  A    between atoms: _544  and  _545
REMARK  218  A    between atoms: _547  and  _549
REMARK  219  A    between atoms: _549  and  _550
REMARK  220  A    between atoms: _549  and  _552
REMARK  221  A    between atoms: _552  and  _553
REMARK  222  A    between atoms: _555  and  _557
REMARK  223  A    between atoms: _557  and  _558
REMARK  224  A    between atoms: _557  and  _560
REMARK  225  A    between atoms: _560  and  _561
REMARK  226  A    between atoms: _566  and  _567
REMARK  227  A    between atoms: _569  and  _571
REMARK  228  A    between atoms: _571  and  _572
REMARK  229  A    between atoms: _571  and  _574
REMARK  230  A    between atoms: _574  and  _575
REMARK  231  A    between atoms: _585  and  _587
REMARK  232  A    between atoms: _587  and  _588
REMARK  233  A    between atoms: _587  and  _590
REMARK  234  A    between atoms: _590  and  _591
REMARK  235  A    between atoms: _594  and  _596
REMARK  236  A    between atoms: _596  and  _597
REMARK  237  A    between atoms: _600  and  _602
REMARK  238  A    between atoms: _602  and  _603
REMARK  239  A    between atoms: _602  and  _605
REMARK  240  A    between atoms: _605  and  _606
REMARK                            x       y       z     vdW  Elec       q    Type
REMARK                         _______ _______ _______ _____ _____    ______ ____
ROOT
ATOM      1  O   HOH     1     -25.608  13.865 -10.552  0.00  0.00    +0.000 OA
ENDROOT
TORSDOF 0
REMARK  Name = ../refined-set-2016/4ua8/4ua8_pocket.pdb
REMARK  240 active torsions:
REMARK  status: ('A' for Active; 'I' for Inactive)
REMARK    1  A    between atoms: _1  and  _3
REMARK    2  A    between atoms: _3  and  _4
REMARK    3  A    between atoms: _7  and  _8
REMARK    4  A    between atoms: _13  and  _15
REMARK    5  A    between atoms: _15  and  _16
REMARK    6  A    between atoms: _19  and  _21
REMARK    7  A    between atoms: _21  and  _22
REMARK    8  A    between atoms: _21  and  _24
REMARK    9  A    between atoms: _24  and  _25
REMARK   10  A    between atoms: _25  and  _26
REMARK   11  A    between atoms: _29  and  _31
REMARK   12  A    between atoms: _31  and  _32
REMARK   13  A    between atoms: _31  and  _34
REMARK   14  A    between atoms: _34  and  _35
REMARK   15  A    between atoms: _38  and  _40
REMARK   16  A    between atoms: _40  and  _41
REMARK   17  A    between atoms: _40  and  _43
REMARK   18  A    between atoms: _43  and  _44
REMARK   19  A    between atoms: _46  and  _48
REMARK   20  A    between atoms: _48  and  _49
REMARK   21  A    between atoms: _48  and  _51
REMARK   22  A    between atoms: _51  and  _52
REMARK   23  A    between atoms: _54  and  _56
REMARK   24  A    between atoms: _56  and  _57
REMARK   25  A    between atoms: _56  and  _59
REMARK   26  A    between atoms: _59  and  _60
REMARK   27  A    between atoms: _60  and  _61
REMARK   28  A    between atoms: _64  and  _66
REMARK   29  A    between atoms: _66  and  _67
REMARK   30  A    between atoms: _66  and  _69
REMARK   31  A    between atoms: _69  and  _70
REMARK   32  A    between atoms: _72  and  _74
REMARK   33  A    between atoms: _74  and  _75
REMARK   34  A    between atoms: _74  and  _77
REMARK   35  A    between atoms: _77  and  _78
REMARK   36  A    between atoms: _81  and  _83
REMARK   37  A    between atoms: _83  and  _84
REMARK   38  A    between atoms: _87  and  _89
REMARK   39  A    between atoms: _89  and  _90
REMARK   40  A    between atoms: _89  and  _92
REMARK   41  A    between atoms: _92  and  _93
REMARK   42  A    between atoms: _93  and  _94
REMARK   43  A    between atoms: _94  and  _95
REMARK   44  A    between atoms: _95  and  _96
REMARK   45  A    between atoms: _100  and  _102
REMARK   46  A    between atoms: _102  and  _103
REMARK   47  A    between atoms: _102  and  _105
REMARK   48  A    between atoms: _105  and  _106
REMARK   49  A    between atoms: _109  and  _111
REMARK   50  A    between atoms: _111  and  _112
REMARK   51  A    between atoms: _111  and  _114
REMARK   52  A    between atoms: _114  and  _115
REMARK   53  A    between atoms: _115  and  _116
REMARK   54  A    between atoms: _118  and  _120
REMARK   55  A    between atoms: _120  and  _121
REMARK   56  A    between atoms: _120  and  _123
REMARK   57  A    between atoms: _123  and  _124
REMARK   58  A    between atoms: _130  and  _132
REMARK   59  A    between atoms: _132  and  _133
REMARK   60  A    between atoms: _136  and  _138
REMARK   61  A    between atoms: _138  and  _139
REMARK   62  A    between atoms: _138  and  _141
REMARK   63  A    between atoms: _141  and  _142
REMARK   64  A    between atoms: _147  and  _149
REMARK   65  A    between atoms: _149  and  _150
REMARK   66  A    between atoms: _149  and  _152
REMARK   67  A    between atoms: _152  and  _153
REMARK   68  A    between atoms: _156  and  _158
REMARK   69  A    between atoms: _158  and  _159
REMARK   70  A    between atoms: _158  and  _161
REMARK   71  A    between atoms: _161  and  _162
REMARK   72  A    between atoms: _162  and  _163
REMARK   73  A    between atoms: _168  and  _170
REMARK   74  A    between atoms: _170  and  _171
REMARK   75  A    between atoms: _170  and  _173
REMARK   76  A    between atoms: _173  and  _174
REMARK   77  A    between atoms: _178  and  _179
REMARK   78  A    between atoms: _184  and  _186
REMARK   79  A    between atoms: _186  and  _187
REMARK   80  A    between atoms: _186  and  _189
REMARK   81  A    between atoms: _189  and  _190
REMARK   82  A    between atoms: _195  and  _196
REMARK   83  A    between atoms: _198  and  _200
REMARK   84  A    between atoms: _200  and  _201
REMARK   85  A    between atoms: _200  and  _203
REMARK   86  A    between atoms: _203  and  _204
REMARK   87  A    between atoms: _207  and  _209
REMARK   88  A    between atoms: _209  and  _210
REMARK   89  A    between atoms: _209  and  _212
REMARK   90  A    between atoms: _212  and  _213
REMARK   91  A    between atoms: _215  and  _217
REMARK   92  A    between atoms: _217  and  _218
REMARK   93  A    between atoms: _217  and  _220
REMARK   94  A    between atoms: _220  and  _221
REMARK   95  A    between atoms: _226  and  _228
REMARK   96  A    between atoms: _228  and  _229
REMARK   97  A    between atoms: _228  and  _231
REMARK   98  A    between atoms: _231  and  _232
REMARK   99  A    between atoms: _235  and  _237
REMARK  100  A    between atoms: _237  and  _238
REMARK  101  A    between atoms: _237  and  _240
REMARK  102  A    between atoms: _240  and  _241
REMARK  103  A    between atoms: _252  and  _253
REMARK  104  A    between atoms: _258  and  _260
REMARK  105  A    between atoms: _260  and  _261
REMARK  106  A    between atoms: _260  and  _263
REMARK  107  A    between atoms: _263  and  _264
REMARK  108  A    between atoms: _267  and  _269
REMARK  109  A    between atoms: _269  and  _270
REMARK  110  A    between atoms: _269  and  _272
REMARK  111  A    between atoms: _272  and  _273
REMARK  112  A    between atoms: _278  and  _280
REMARK  113  A    between atoms: _280  and  _281
REMARK  114  A    between atoms: _283  and  _285
REMARK  115  A    between atoms: _285  and  _286
REMARK  116  A    between atoms: _285  and  _288
REMARK  117  A    between atoms: _288  and  _289
REMARK  118  A    between atoms: _299  and  _301
REMARK  119  A    between atoms: _301  and  _302
REMARK  120  A    between atoms: _301  and  _304
REMARK  121  A    between atoms: _304  and  _305
REMARK  122  A    between atoms: _310  and  _311
REMARK  123  A    between atoms: _313  and  _315
REMARK  124  A    between atoms: _315  and  _316
REMARK  125  A    between atoms: _315  and  _318
REMARK  126  A    between atoms: _318  and  _319
REMARK  127  A    between atoms: _322  and  _324
REMARK  128  A    between atoms: _324  and  _325
REMARK  129  A    between atoms: _324  and  _327
REMARK  130  A    between atoms: _327  and  _328
REMARK  131  A    between atoms: _333  and  _335
REMARK  132  A    between atoms: _335  and  _336
REMARK  133  A    between atoms: _335  and  _338
REMARK  134  A    between atoms: _338  and  _339
REMARK  135  A    between atoms: _344  and  _346
REMARK  136  A    between atoms: _346  and  _347
REMARK  137  A    between atoms: _346  and  _349
REMARK  138  A    between atoms: _349  and  _350
REMARK  139  A    between atoms: _350  and  _351
REMARK  140  A    between atoms: _354  and  _356
REMARK  141  A    between atoms: _356  and  _357
REMARK  142  A    between atoms: _359  and  _361
REMARK  143  A    between atoms: _361  and  _362
REMARK  144  A    between atoms: _361  and  _364
REMARK  145  A    between atoms: _364  and  _365
REMARK  146  A    between atoms: _367  and  _369
REMARK  147  A    between atoms: _369  and  _370
REMARK  148  A    between atoms: _369  and  _372
REMARK  149  A    between atoms: _372  and  _373
REMARK  150  A    between atoms: _378  and  _379
REMARK  151  A    between atoms: _381  and  _383
REMARK  152  A    between atoms: _383  and  _384
REMARK  153  A    between atoms: _383  and  _386
REMARK  154  A    between atoms: _386  and  _387
REMARK  155  A    between atoms: _392  and  _394
REMARK  156  A    between atoms: _394  and  _395
REMARK  157  A    between atoms: _397  and  _399
REMARK  158  A    between atoms: _399  and  _400
REMARK  159  A    between atoms: _399  and  _402
REMARK  160  A    between atoms: _402  and  _403
REMARK  161  A    between atoms: _408  and  _410
REMARK  162  A    between atoms: _410  and  _411
REMARK  163  A    between atoms: _410  and  _413
REMARK  164  A    between atoms: _413  and  _414
REMARK  165  A    between atoms: _424  and  _426
REMARK  166  A    between atoms: _426  and  _427
REMARK  167  A    between atoms: _426  and  _429
REMARK  168  A    between atoms: _429  and  _430
REMARK  169  A    between atoms: _435  and  _437
REMARK  170  A    between atoms: _437  and  _438
REMARK  171  A    between atoms: _437  and  _440
REMARK  172  A    between atoms: _440  and  _441
REMARK  173  A    between atoms: _441  and  _442
REMARK  174  A    between atoms: _442  and  _443
REMARK  175  A    between atoms: _443  and  _444
REMARK  176  A    between atoms: _448  and  _450
REMARK  177  A    between atoms: _450  and  _451
REMARK  178  A    between atoms: _450  and  _453
REMARK  179  A    between atoms: _453  and  _454
REMARK  180  A    between atoms: _460  and  _462
REMARK  181  A    between atoms: _462  and  _463
REMARK  182  A    between atoms: _465  and  _467
REMARK  183  A    between atoms: _467  and  _468
REMARK  184  A    between atoms: _467  and  _470
REMARK  185  A    between atoms: _470  and  _471
REMARK  186  A    between atoms: _473  and  _475
REMARK  187  A    between atoms: _475  and  _476
REMARK  188  A    between atoms: _475  and  _478
REMARK  189  A    between atoms: _478  and  _479
REMARK  190  A    between atoms: _479  and  _480
REMARK  191  A    between atoms: _480  and  _481
REMARK  192  A    between atoms: _481  and  _482
REMARK  193  A    between atoms: _486  and  _488
REMARK  194  A    between atoms: _488  and  _489
REMARK  195  A    between atoms: _488  and  _491
REMARK  196  A    between atoms: _491  and  _492
REMARK  197  A    between atoms: _497  and  _499
REMARK  198  A    between atoms: _499  and  _500
REMARK  199  A    between atoms: _499  and  _502
REMARK  200  A    between atoms: _502  and  _503
REMARK  201  A    between atoms: _503  and  _504
REMARK  202  A    between atoms: _504  and  _505
REMARK  203  A    between atoms: _514  and  _516
REMARK  204  A    between atoms: _516  and  _517
REMARK  205  A    between atoms: _516  and  _519
REMARK  206  A    between atoms: _519  and  _520
REMARK  207  A    between atoms: _520  and  _521
REMARK  208  A    between atoms: _526  and  _528
REMARK  209  A    between atoms: _528  and  _529
REMARK  210  A    between atoms: _528  and  _531
REMARK  211  A    between atoms: _531  and  _532
REMARK  212  A    between atoms: _532  and  _533
REMARK  213  A    between atoms: _538  and  _540
REMARK  214  A    between atoms: _540  and  _541
REMARK  215  A    between atoms: _540  and  _543
REMARK  216  A    between atoms: _543  and  _544
REMARK  217  A    between atoms: _544  and  _545
REMARK  218  A    between atoms: _547  and  _549
REMARK  219  A    between atoms: _549  and  _550
REMARK  220  A    between atoms: _549  and  _552
REMARK  221  A    between atoms: _552  and  _553
REMARK  222  A    between atoms: _555  and  _557
REMARK  223  A    between atoms: _557  and  _558
REMARK  224  A    between atoms: _557  and  _560
REMARK  225  A    between atoms: _560  and  _561
REMARK  226  A    between atoms: _566  and  _567
REMARK  227  A    between atoms: _569  and  _571
REMARK  228  A    between atoms: _571  and  _572
REMARK  229  A    between atoms: _571  and  _574
REMARK  230  A    between atoms: _574  and  _575
REMARK  231  A    between atoms: _585  and  _587
REMARK  232  A    between atoms: _587  and  _588
REMARK  233  A    between atoms: _587  and  _590
REMARK  234  A    between atoms: _590  and  _591
REMARK  235  A    between atoms: _594  and  _596
REMARK  236  A    between atoms: _596  and  _597
REMARK  237  A    between atoms: _600  and  _602
REMARK  238  A    between atoms: _602  and  _603
REMARK  239  A    between atoms: _602  and  _605
REMARK  240  A    between atoms: _605  and  _606
REMARK                            x       y       z     vdW  Elec       q    Type
REMARK                         _______ _______ _______ _____ _____    ______ ____
ROOT
ATOM      1  O   HOH     1     -25.516   6.004  -8.248  0.00  0.00    +0.000 OA
ENDROOT
TORSDOF 0
REMARK  Name = ../refined-set-2016/4ua8/4ua8_pocket.pdb
REMARK  240 active torsions:
REMARK  status: ('A' for Active; 'I' for Inactive)
REMARK    1  A    between atoms: _1  and  _3
REMARK    2  A    between atoms: _3  and  _4
REMARK    3  A    between atoms: _7  and  _8
REMARK    4  A    between atoms: _13  and  _15
REMARK    5  A    between atoms: _15  and  _16
REMARK    6  A    between atoms: _19  and  _21
REMARK    7  A    between atoms: _21  and  _22
REMARK    8  A    between atoms: _21  and  _24
REMARK    9  A    between atoms: _24  and  _25
REMARK   10  A    between atoms: _25  and  _26
REMARK   11  A    between atoms: _29  and  _31
REMARK   12  A    between atoms: _31  and  _32
REMARK   13  A    between atoms: _31  and  _34
REMARK   14  A    between atoms: _34  and  _35
REMARK   15  A    between atoms: _38  and  _40
REMARK   16  A    between atoms: _40  and  _41
REMARK   17  A    between atoms: _40  and  _43
REMARK   18  A    between atoms: _43  and  _44
REMARK   19  A    between atoms: _46  and  _48
REMARK   20  A    between atoms: _48  and  _49
REMARK   21  A    between atoms: _48  and  _51
REMARK   22  A    between atoms: _51  and  _52
REMARK   23  A    between atoms: _54  and  _56
REMARK   24  A    between atoms: _56  and  _57
REMARK   25  A    between atoms: _56  and  _59
REMARK   26  A    between atoms: _59  and  _60
REMARK   27  A    between atoms: _60  and  _61
REMARK   28  A    between atoms: _64  and  _66
REMARK   29  A    between atoms: _66  and  _67
REMARK   30  A    between atoms: _66  and  _69
REMARK   31  A    between atoms: _69  and  _70
REMARK   32  A    between atoms: _72  and  _74
REMARK   33  A    between atoms: _74  and  _75
REMARK   34  A    between atoms: _74  and  _77
REMARK   35  A    between atoms: _77  and  _78
REMARK   36  A    between atoms: _81  and  _83
REMARK   37  A    between atoms: _83  and  _84
REMARK   38  A    between atoms: _87  and  _89
REMARK   39  A    between atoms: _89  and  _90
REMARK   40  A    between atoms: _89  and  _92
REMARK   41  A    between atoms: _92  and  _93
REMARK   42  A    between atoms: _93  and  _94
REMARK   43  A    between atoms: _94  and  _95
REMARK   44  A    between atoms: _95  and  _96
REMARK   45  A    between atoms: _100  and  _102
REMARK   46  A    between atoms: _102  and  _103
REMARK   47  A    between atoms: _102  and  _105
REMARK   48  A    between atoms: _105  and  _106
REMARK   49  A    between atoms: _109  and  _111
REMARK   50  A    between atoms: _111  and  _112
REMARK   51  A    between atoms: _111  and  _114
REMARK   52  A    between atoms: _114  and  _115
REMARK   53  A    between atoms: _115  and  _116
REMARK   54  A    between atoms: _118  and  _120
REMARK   55  A    between atoms: _120  and  _121
REMARK   56  A    between atoms: _120  and  _123
REMARK   57  A    between atoms: _123  and  _124
REMARK   58  A    between atoms: _130  and  _132
REMARK   59  A    between atoms: _132  and  _133
REMARK   60  A    between atoms: _136  and  _138
REMARK   61  A    between atoms: _138  and  _139
REMARK   62  A    between atoms: _138  and  _141
REMARK   63  A    between atoms: _141  and  _142
REMARK   64  A    between atoms: _147  and  _149
REMARK   65  A    between atoms: _149  and  _150
REMARK   66  A    between atoms: _149  and  _152
REMARK   67  A    between atoms: _152  and  _153
REMARK   68  A    between atoms: _156  and  _158
REMARK   69  A    between atoms: _158  and  _159
REMARK   70  A    between atoms: _158  and  _161
REMARK   71  A    between atoms: _161  and  _162
REMARK   72  A    between atoms: _162  and  _163
REMARK   73  A    between atoms: _168  and  _170
REMARK   74  A    between atoms: _170  and  _171
REMARK   75  A    between atoms: _170  and  _173
REMARK   76  A    between atoms: _173  and  _174
REMARK   77  A    between atoms: _178  and  _179
REMARK   78  A    between atoms: _184  and  _186
REMARK   79  A    between atoms: _186  and  _187
REMARK   80  A    between atoms: _186  and  _189
REMARK   81  A    between atoms: _189  and  _190
REMARK   82  A    between atoms: _195  and  _196
REMARK   83  A    between atoms: _198  and  _200
REMARK   84  A    between atoms: _200  and  _201
REMARK   85  A    between atoms: _200  and  _203
REMARK   86  A    between atoms: _203  and  _204
REMARK   87  A    between atoms: _207  and  _209
REMARK   88  A    between atoms: _209  and  _210
REMARK   89  A    between atoms: _209  and  _212
REMARK   90  A    between atoms: _212  and  _213
REMARK   91  A    between atoms: _215  and  _217
REMARK   92  A    between atoms: _217  and  _218
REMARK   93  A    between atoms: _217  and  _220
REMARK   94  A    between atoms: _220  and  _221
REMARK   95  A    between atoms: _226  and  _228
REMARK   96  A    between atoms: _228  and  _229
REMARK   97  A    between atoms: _228  and  _231
REMARK   98  A    between atoms: _231  and  _232
REMARK   99  A    between atoms: _235  and  _237
REMARK  100  A    between atoms: _237  and  _238
REMARK  101  A    between atoms: _237  and  _240
REMARK  102  A    between atoms: _240  and  _241
REMARK  103  A    between atoms: _252  and  _253
REMARK  104  A    between atoms: _258  and  _260
REMARK  105  A    between atoms: _260  and  _261
REMARK  106  A    between atoms: _260  and  _263
REMARK  107  A    between atoms: _263  and  _264
REMARK  108  A    between atoms: _267  and  _269
REMARK  109  A    between atoms: _269  and  _270
REMARK  110  A    between atoms: _269  and  _272
REMARK  111  A    between atoms: _272  and  _273
REMARK  112  A    between atoms: _278  and  _280
REMARK  113  A    between atoms: _280  and  _281
REMARK  114  A    between atoms: _283  and  _285
REMARK  115  A    between atoms: _285  and  _286
REMARK  116  A    between atoms: _285  and  _288
REMARK  117  A    between atoms: _288  and  _289
REMARK  118  A    between atoms: _299  and  _301
REMARK  119  A    between atoms: _301  and  _302
REMARK  120  A    between atoms: _301  and  _304
REMARK  121  A    between atoms: _304  and  _305
REMARK  122  A    between atoms: _310  and  _311
REMARK  123  A    between atoms: _313  and  _315
REMARK  124  A    between atoms: _315  and  _316
REMARK  125  A    between atoms: _315  and  _318
REMARK  126  A    between atoms: _318  and  _319
REMARK  127  A    between atoms: _322  and  _324
REMARK  128  A    between atoms: _324  and  _325
REMARK  129  A    between atoms: _324  and  _327
REMARK  130  A    between atoms: _327  and  _328
REMARK  131  A    between atoms: _333  and  _335
REMARK  132  A    between atoms: _335  and  _336
REMARK  133  A    between atoms: _335  and  _338
REMARK  134  A    between atoms: _338  and  _339
REMARK  135  A    between atoms: _344  and  _346
REMARK  136  A    between atoms: _346  and  _347
REMARK  137  A    between atoms: _346  and  _349
REMARK  138  A    between atoms: _349  and  _350
REMARK  139  A    between atoms: _350  and  _351
REMARK  140  A    between atoms: _354  and  _356
REMARK  141  A    between atoms: _356  and  _357
REMARK  142  A    between atoms: _359  and  _361
REMARK  143  A    between atoms: _361  and  _362
REMARK  144  A    between atoms: _361  and  _364
REMARK  145  A    between atoms: _364  and  _365
REMARK  146  A    between atoms: _367  and  _369
REMARK  147  A    between atoms: _369  and  _370
REMARK  148  A    between atoms: _369  and  _372
REMARK  149  A    between atoms: _372  and  _373
REMARK  150  A    between atoms: _378  and  _379
REMARK  151  A    between atoms: _381  and  _383
REMARK  152  A    between atoms: _383  and  _384
REMARK  153  A    between atoms: _383  and  _386
REMARK  154  A    between atoms: _386  and  _387
REMARK  155  A    between atoms: _392  and  _394
REMARK  156  A    between atoms: _394  and  _395
REMARK  157  A    between atoms: _397  and  _399
REMARK  158  A    between atoms: _399  and  _400
REMARK  159  A    between atoms: _399  and  _402
REMARK  160  A    between atoms: _402  and  _403
REMARK  161  A    between atoms: _408  and  _410
REMARK  162  A    between atoms: _410  and  _411
REMARK  163  A    between atoms: _410  and  _413
REMARK  164  A    between atoms: _413  and  _414
REMARK  165  A    between atoms: _424  and  _426
REMARK  166  A    between atoms: _426  and  _427
REMARK  167  A    between atoms: _426  and  _429
REMARK  168  A    between atoms: _429  and  _430
REMARK  169  A    between atoms: _435  and  _437
REMARK  170  A    between atoms: _437  and  _438
REMARK  171  A    between atoms: _437  and  _440
REMARK  172  A    between atoms: _440  and  _441
REMARK  173  A    between atoms: _441  and  _442
REMARK  174  A    between atoms: _442  and  _443
REMARK  175  A    between atoms: _443  and  _444
REMARK  176  A    between atoms: _448  and  _450
REMARK  177  A    between atoms: _450  and  _451
REMARK  178  A    between atoms: _450  and  _453
REMARK  179  A    between atoms: _453  and  _454
REMARK  180  A    between atoms: _460  and  _462
REMARK  181  A    between atoms: _462  and  _463
REMARK  182  A    between atoms: _465  and  _467
REMARK  183  A    between atoms: _467  and  _468
REMARK  184  A    between atoms: _467  and  _470
REMARK  185  A    between atoms: _470  and  _471
REMARK  186  A    between atoms: _473  and  _475
REMARK  187  A    between atoms: _475  and  _476
REMARK  188  A    between atoms: _475  and  _478
REMARK  189  A    between atoms: _478  and  _479
REMARK  190  A    between atoms: _479  and  _480
REMARK  191  A    between atoms: _480  and  _481
REMARK  192  A    between atoms: _481  and  _482
REMARK  193  A    between atoms: _486  and  _488
REMARK  194  A    between atoms: _488  and  _489
REMARK  195  A    between atoms: _488  and  _491
REMARK  196  A    between atoms: _491  and  _492
REMARK  197  A    between atoms: _497  and  _499
REMARK  198  A    between atoms: _499  and  _500
REMARK  199  A    between atoms: _499  and  _502
REMARK  200  A    between atoms: _502  and  _503
REMARK  201  A    between atoms: _503  and  _504
REMARK  202  A    between atoms: _504  and  _505
REMARK  203  A    between atoms: _514  and  _516
REMARK  204  A    between atoms: _516  and  _517
REMARK  205  A    between atoms: _516  and  _519
REMARK  206  A    between atoms: _519  and  _520
REMARK  207  A    between atoms: _520  and  _521
REMARK  208  A    between atoms: _526  and  _528
REMARK  209  A    between atoms: _528  and  _529
REMARK  210  A    between atoms: _528  and  _531
REMARK  211  A    between atoms: _531  and  _532
REMARK  212  A    between atoms: _532  and  _533
REMARK  213  A    between atoms: _538  and  _540
REMARK  214  A    between atoms: _540  and  _541
REMARK  215  A    between atoms: _540  and  _543
REMARK  216  A    between atoms: _543  and  _544
REMARK  217  A    between atoms: _544  and  _545
REMARK  218  A    between atoms: _547  and  _549
REMARK  219  A    between atoms: _549  and  _550
REMARK  220  A    between atoms: _549  and  _552
REMARK  221  A    between atoms: _552  and  _553
REMARK  222  A    between atoms: _555  and  _557
REMARK  223  A    between atoms: _557  and  _558
REMARK  224  A    between atoms: _557  and  _560
REMARK  225  A    between atoms: _560  and  _561
REMARK  226  A    between atoms: _566  and  _567
REMARK  227  A    between atoms: _569  and  _571
REMARK  228  A    between atoms: _571  and  _572
REMARK  229  A    between atoms: _571  and  _574
REMARK  230  A    between atoms: _574  and  _575
REMARK  231  A    between atoms: _585  and  _587
REMARK  232  A    between atoms: _587  and  _588
REMARK  233  A    between atoms: _587  and  _590
REMARK  234  A    between atoms: _590  and  _591
REMARK  235  A    between atoms: _594  and  _596
REMARK  236  A    between atoms: _596  and  _597
REMARK  237  A    between atoms: _600  and  _602
REMARK  238  A    between atoms: _602  and  _603
REMARK  239  A    between atoms: _602  and  _605
REMARK  240  A    between atoms: _605  and  _606
REMARK                            x       y       z     vdW  Elec       q    Type
REMARK                         _______ _______ _______ _____ _____    ______ ____
ROOT
ATOM      1  O   HOH     1     -29.087  -0.235  -1.729  0.00  0.00    +0.000 OA
ENDROOT
TORSDOF 0
REMARK  Name = ../refined-set-2016/4ua8/4ua8_pocket.pdb
REMARK  240 active torsions:
REMARK  status: ('A' for Active; 'I' for Inactive)
REMARK    1  A    between atoms: _1  and  _3
REMARK    2  A    between atoms: _3  and  _4
REMARK    3  A    between atoms: _7  and  _8
REMARK    4  A    between atoms: _13  and  _15
REMARK    5  A    between atoms: _15  and  _16
REMARK    6  A    between atoms: _19  and  _21
REMARK    7  A    between atoms: _21  and  _22
REMARK    8  A    between atoms: _21  and  _24
REMARK    9  A    between atoms: _24  and  _25
REMARK   10  A    between atoms: _25  and  _26
REMARK   11  A    between atoms: _29  and  _31
REMARK   12  A    between atoms: _31  and  _32
REMARK   13  A    between atoms: _31  and  _34
REMARK   14  A    between atoms: _34  and  _35
REMARK   15  A    between atoms: _38  and  _40
REMARK   16  A    between atoms: _40  and  _41
REMARK   17  A    between atoms: _40  and  _43
REMARK   18  A    between atoms: _43  and  _44
REMARK   19  A    between atoms: _46  and  _48
REMARK   20  A    between atoms: _48  and  _49
REMARK   21  A    between atoms: _48  and  _51
REMARK   22  A    between atoms: _51  and  _52
REMARK   23  A    between atoms: _54  and  _56
REMARK   24  A    between atoms: _56  and  _57
REMARK   25  A    between atoms: _56  and  _59
REMARK   26  A    between atoms: _59  and  _60
REMARK   27  A    between atoms: _60  and  _61
REMARK   28  A    between atoms: _64  and  _66
REMARK   29  A    between atoms: _66  and  _67
REMARK   30  A    between atoms: _66  and  _69
REMARK   31  A    between atoms: _69  and  _70
REMARK   32  A    between atoms: _72  and  _74
REMARK   33  A    between atoms: _74  and  _75
REMARK   34  A    between atoms: _74  and  _77
REMARK   35  A    between atoms: _77  and  _78
REMARK   36  A    between atoms: _81  and  _83
REMARK   37  A    between atoms: _83  and  _84
REMARK   38  A    between atoms: _87  and  _89
REMARK   39  A    between atoms: _89  and  _90
REMARK   40  A    between atoms: _89  and  _92
REMARK   41  A    between atoms: _92  and  _93
REMARK   42  A    between atoms: _93  and  _94
REMARK   43  A    between atoms: _94  and  _95
REMARK   44  A    between atoms: _95  and  _96
REMARK   45  A    between atoms: _100  and  _102
REMARK   46  A    between atoms: _102  and  _103
REMARK   47  A    between atoms: _102  and  _105
REMARK   48  A    between atoms: _105  and  _106
REMARK   49  A    between atoms: _109  and  _111
REMARK   50  A    between atoms: _111  and  _112
REMARK   51  A    between atoms: _111  and  _114
REMARK   52  A    between atoms: _114  and  _115
REMARK   53  A    between atoms: _115  and  _116
REMARK   54  A    between atoms: _118  and  _120
REMARK   55  A    between atoms: _120  and  _121
REMARK   56  A    between atoms: _120  and  _123
REMARK   57  A    between atoms: _123  and  _124
REMARK   58  A    between atoms: _130  and  _132
REMARK   59  A    between atoms: _132  and  _133
REMARK   60  A    between atoms: _136  and  _138
REMARK   61  A    between atoms: _138  and  _139
REMARK   62  A    between atoms: _138  and  _141
REMARK   63  A    between atoms: _141  and  _142
REMARK   64  A    between atoms: _147  and  _149
REMARK   65  A    between atoms: _149  and  _150
REMARK   66  A    between atoms: _149  and  _152
REMARK   67  A    between atoms: _152  and  _153
REMARK   68  A    between atoms: _156  and  _158
REMARK   69  A    between atoms: _158  and  _159
REMARK   70  A    between atoms: _158  and  _161
REMARK   71  A    between atoms: _161  and  _162
REMARK   72  A    between atoms: _162  and  _163
REMARK   73  A    between atoms: _168  and  _170
REMARK   74  A    between atoms: _170  and  _171
REMARK   75  A    between atoms: _170  and  _173
REMARK   76  A    between atoms: _173  and  _174
REMARK   77  A    between atoms: _178  and  _179
REMARK   78  A    between atoms: _184  and  _186
REMARK   79  A    between atoms: _186  and  _187
REMARK   80  A    between atoms: _186  and  _189
REMARK   81  A    between atoms: _189  and  _190
REMARK   82  A    between atoms: _195  and  _196
REMARK   83  A    between atoms: _198  and  _200
REMARK   84  A    between atoms: _200  and  _201
REMARK   85  A    between atoms: _200  and  _203
REMARK   86  A    between atoms: _203  and  _204
REMARK   87  A    between atoms: _207  and  _209
REMARK   88  A    between atoms: _209  and  _210
REMARK   89  A    between atoms: _209  and  _212
REMARK   90  A    between atoms: _212  and  _213
REMARK   91  A    between atoms: _215  and  _217
REMARK   92  A    between atoms: _217  and  _218
REMARK   93  A    between atoms: _217  and  _220
REMARK   94  A    between atoms: _220  and  _221
REMARK   95  A    between atoms: _226  and  _228
REMARK   96  A    between atoms: _228  and  _229
REMARK   97  A    between atoms: _228  and  _231
REMARK   98  A    between atoms: _231  and  _232
REMARK   99  A    between atoms: _235  and  _237
REMARK  100  A    between atoms: _237  and  _238
REMARK  101  A    between atoms: _237  and  _240
REMARK  102  A    between atoms: _240  and  _241
REMARK  103  A    between atoms: _252  and  _253
REMARK  104  A    between atoms: _258  and  _260
REMARK  105  A    between atoms: _260  and  _261
REMARK  106  A    between atoms: _260  and  _263
REMARK  107  A    between atoms: _263  and  _264
REMARK  108  A    between atoms: _267  and  _269
REMARK  109  A    between atoms: _269  and  _270
REMARK  110  A    between atoms: _269  and  _272
REMARK  111  A    between atoms: _272  and  _273
REMARK  112  A    between atoms: _278  and  _280
REMARK  113  A    between atoms: _280  and  _281
REMARK  114  A    between atoms: _283  and  _285
REMARK  115  A    between atoms: _285  and  _286
REMARK  116  A    between atoms: _285  and  _288
REMARK  117  A    between atoms: _288  and  _289
REMARK  118  A    between atoms: _299  and  _301
REMARK  119  A    between atoms: _301  and  _302
REMARK  120  A    between atoms: _301  and  _304
REMARK  121  A    between atoms: _304  and  _305
REMARK  122  A    between atoms: _310  and  _311
REMARK  123  A    between atoms: _313  and  _315
REMARK  124  A    between atoms: _315  and  _316
REMARK  125  A    between atoms: _315  and  _318
REMARK  126  A    between atoms: _318  and  _319
REMARK  127  A    between atoms: _322  and  _324
REMARK  128  A    between atoms: _324  and  _325
REMARK  129  A    between atoms: _324  and  _327
REMARK  130  A    between atoms: _327  and  _328
REMARK  131  A    between atoms: _333  and  _335
REMARK  132  A    between atoms: _335  and  _336
REMARK  133  A    between atoms: _335  and  _338
REMARK  134  A    between atoms: _338  and  _339
REMARK  135  A    between atoms: _344  and  _346
REMARK  136  A    between atoms: _346  and  _347
REMARK  137  A    between atoms: _346  and  _349
REMARK  138  A    between atoms: _349  and  _350
REMARK  139  A    between atoms: _350  and  _351
REMARK  140  A    between atoms: _354  and  _356
REMARK  141  A    between atoms: _356  and  _357
REMARK  142  A    between atoms: _359  and  _361
REMARK  143  A    between atoms: _361  and  _362
REMARK  144  A    between atoms: _361  and  _364
REMARK  145  A    between atoms: _364  and  _365
REMARK  146  A    between atoms: _367  and  _369
REMARK  147  A    between atoms: _369  and  _370
REMARK  148  A    between atoms: _369  and  _372
REMARK  149  A    between atoms: _372  and  _373
REMARK  150  A    between atoms: _378  and  _379
REMARK  151  A    between atoms: _381  and  _383
REMARK  152  A    between atoms: _383  and  _384
REMARK  153  A    between atoms: _383  and  _386
REMARK  154  A    between atoms: _386  and  _387
REMARK  155  A    between atoms: _392  and  _394
REMARK  156  A    between atoms: _394  and  _395
REMARK  157  A    between atoms: _397  and  _399
REMARK  158  A    between atoms: _399  and  _400
REMARK  159  A    between atoms: _399  and  _402
REMARK  160  A    between atoms: _402  and  _403
REMARK  161  A    between atoms: _408  and  _410
REMARK  162  A    between atoms: _410  and  _411
REMARK  163  A    between atoms: _410  and  _413
REMARK  164  A    between atoms: _413  and  _414
REMARK  165  A    between atoms: _424  and  _426
REMARK  166  A    between atoms: _426  and  _427
REMARK  167  A    between atoms: _426  and  _429
REMARK  168  A    between atoms: _429  and  _430
REMARK  169  A    between atoms: _435  and  _437
REMARK  170  A    between atoms: _437  and  _438
REMARK  171  A    between atoms: _437  and  _440
REMARK  172  A    between atoms: _440  and  _441
REMARK  173  A    between atoms: _441  and  _442
REMARK  174  A    between atoms: _442  and  _443
REMARK  175  A    between atoms: _443  and  _444
REMARK  176  A    between atoms: _448  and  _450
REMARK  177  A    between atoms: _450  and  _451
REMARK  178  A    between atoms: _450  and  _453
REMARK  179  A    between atoms: _453  and  _454
REMARK  180  A    between atoms: _460  and  _462
REMARK  181  A    between atoms: _462  and  _463
REMARK  182  A    between atoms: _465  and  _467
REMARK  183  A    between atoms: _467  and  _468
REMARK  184  A    between atoms: _467  and  _470
REMARK  185  A    between atoms: _470  and  _471
REMARK  186  A    between atoms: _473  and  _475
REMARK  187  A    between atoms: _475  and  _476
REMARK  188  A    between atoms: _475  and  _478
REMARK  189  A    between atoms: _478  and  _479
REMARK  190  A    between atoms: _479  and  _480
REMARK  191  A    between atoms: _480  and  _481
REMARK  192  A    between atoms: _481  and  _482
REMARK  193  A    between atoms: _486  and  _488
REMARK  194  A    between atoms: _488  and  _489
REMARK  195  A    between atoms: _488  and  _491
REMARK  196  A    between atoms: _491  and  _492
REMARK  197  A    between atoms: _497  and  _499
REMARK  198  A    between atoms: _499  and  _500
REMARK  199  A    between atoms: _499  and  _502
REMARK  200  A    between atoms: _502  and  _503
REMARK  201  A    between atoms: _503  and  _504
REMARK  202  A    between atoms: _504  and  _505
REMARK  203  A    between atoms: _514  and  _516
REMARK  204  A    between atoms: _516  and  _517
REMARK  205  A    between atoms: _516  and  _519
REMARK  206  A    between atoms: _519  and  _520
REMARK  207  A    between atoms: _520  and  _521
REMARK  208  A    between atoms: _526  and  _528
REMARK  209  A    between atoms: _528  and  _529
REMARK  210  A    between atoms: _528  and  _531
REMARK  211  A    between atoms: _531  and  _532
REMARK  212  A    between atoms: _532  and  _533
REMARK  213  A    between atoms: _538  and  _540
REMARK  214  A    between atoms: _540  and  _541
REMARK  215  A    between atoms: _540  and  _543
REMARK  216  A    between atoms: _543  and  _544
REMARK  217  A    between atoms: _544  and  _545
REMARK  218  A    between atoms: _547  and  _549
REMARK  219  A    between atoms: _549  and  _550
REMARK  220  A    between atoms: _549  and  _552
REMARK  221  A    between atoms: _552  and  _553
REMARK  222  A    between atoms: _555  and  _557
REMARK  223  A    between atoms: _557  and  _558
REMARK  224  A    between atoms: _557  and  _560
REMARK  225  A    between atoms: _560  and  _561
REMARK  226  A    between atoms: _566  and  _567
REMARK  227  A    between atoms: _569  and  _571
REMARK  228  A    between atoms: _571  and  _572
REMARK  229  A    between atoms: _571  and  _574
REMARK  230  A    between atoms: _574  and  _575
REMARK  231  A    between atoms: _585  and  _587
REMARK  232  A    between atoms: _587  and  _588
REMARK  233  A    between atoms: _587  and  _590
REMARK  234  A    between atoms: _590  and  _591
REMARK  235  A    between atoms: _594  and  _596
REMARK  236  A    between atoms: _596  and  _597
REMARK  237  A    between atoms: _600  and  _602
REMARK  238  A    between atoms: _602  and  _603
REMARK  239  A    between atoms: _602  and  _605
REMARK  240  A    between atoms: _605  and  _606
REMARK                            x       y       z     vdW  Elec       q    Type
REMARK                         _______ _______ _______ _____ _____    ______ ____
ROOT
ATOM      1  O   HOH     1     -38.105  13.359  -3.231  0.00  0.00    +0.000 OA
ENDROOT
TORSDOF 0
REMARK  Name = ../refined-set-2016/4ua8/4ua8_pocket.pdb
REMARK  240 active torsions:
REMARK  status: ('A' for Active; 'I' for Inactive)
REMARK    1  A    between atoms: _1  and  _3
REMARK    2  A    between atoms: _3  and  _4
REMARK    3  A    between atoms: _7  and  _8
REMARK    4  A    between atoms: _13  and  _15
REMARK    5  A    between atoms: _15  and  _16
REMARK    6  A    between atoms: _19  and  _21
REMARK    7  A    between atoms: _21  and  _22
REMARK    8  A    between atoms: _21  and  _24
REMARK    9  A    between atoms: _24  and  _25
REMARK   10  A    between atoms: _25  and  _26
REMARK   11  A    between atoms: _29  and  _31
REMARK   12  A    between atoms: _31  and  _32
REMARK   13  A    between atoms: _31  and  _34
REMARK   14  A    between atoms: _34  and  _35
REMARK   15  A    between atoms: _38  and  _40
REMARK   16  A    between atoms: _40  and  _41
REMARK   17  A    between atoms: _40  and  _43
REMARK   18  A    between atoms: _43  and  _44
REMARK   19  A    between atoms: _46  and  _48
REMARK   20  A    between atoms: _48  and  _49
REMARK   21  A    between atoms: _48  and  _51
REMARK   22  A    between atoms: _51  and  _52
REMARK   23  A    between atoms: _54  and  _56
REMARK   24  A    between atoms: _56  and  _57
REMARK   25  A    between atoms: _56  and  _59
REMARK   26  A    between atoms: _59  and  _60
REMARK   27  A    between atoms: _60  and  _61
REMARK   28  A    between atoms: _64  and  _66
REMARK   29  A    between atoms: _66  and  _67
REMARK   30  A    between atoms: _66  and  _69
REMARK   31  A    between atoms: _69  and  _70
REMARK   32  A    between atoms: _72  and  _74
REMARK   33  A    between atoms: _74  and  _75
REMARK   34  A    between atoms: _74  and  _77
REMARK   35  A    between atoms: _77  and  _78
REMARK   36  A    between atoms: _81  and  _83
REMARK   37  A    between atoms: _83  and  _84
REMARK   38  A    between atoms: _87  and  _89
REMARK   39  A    between atoms: _89  and  _90
REMARK   40  A    between atoms: _89  and  _92
REMARK   41  A    between atoms: _92  and  _93
REMARK   42  A    between atoms: _93  and  _94
REMARK   43  A    between atoms: _94  and  _95
REMARK   44  A    between atoms: _95  and  _96
REMARK   45  A    between atoms: _100  and  _102
REMARK   46  A    between atoms: _102  and  _103
REMARK   47  A    between atoms: _102  and  _105
REMARK   48  A    between atoms: _105  and  _106
REMARK   49  A    between atoms: _109  and  _111
REMARK   50  A    between atoms: _111  and  _112
REMARK   51  A    between atoms: _111  and  _114
REMARK   52  A    between atoms: _114  and  _115
REMARK   53  A    between atoms: _115  and  _116
REMARK   54  A    between atoms: _118  and  _120
REMARK   55  A    between atoms: _120  and  _121
REMARK   56  A    between atoms: _120  and  _123
REMARK   57  A    between atoms: _123  and  _124
REMARK   58  A    between atoms: _130  and  _132
REMARK   59  A    between atoms: _132  and  _133
REMARK   60  A    between atoms: _136  and  _138
REMARK   61  A    between atoms: _138  and  _139
REMARK   62  A    between atoms: _138  and  _141
REMARK   63  A    between atoms: _141  and  _142
REMARK   64  A    between atoms: _147  and  _149
REMARK   65  A    between atoms: _149  and  _150
REMARK   66  A    between atoms: _149  and  _152
REMARK   67  A    between atoms: _152  and  _153
REMARK   68  A    between atoms: _156  and  _158
REMARK   69  A    between atoms: _158  and  _159
REMARK   70  A    between atoms: _158  and  _161
REMARK   71  A    between atoms: _161  and  _162
REMARK   72  A    between atoms: _162  and  _163
REMARK   73  A    between atoms: _168  and  _170
REMARK   74  A    between atoms: _170  and  _171
REMARK   75  A    between atoms: _170  and  _173
REMARK   76  A    between atoms: _173  and  _174
REMARK   77  A    between atoms: _178  and  _179
REMARK   78  A    between atoms: _184  and  _186
REMARK   79  A    between atoms: _186  and  _187
REMARK   80  A    between atoms: _186  and  _189
REMARK   81  A    between atoms: _189  and  _190
REMARK   82  A    between atoms: _195  and  _196
REMARK   83  A    between atoms: _198  and  _200
REMARK   84  A    between atoms: _200  and  _201
REMARK   85  A    between atoms: _200  and  _203
REMARK   86  A    between atoms: _203  and  _204
REMARK   87  A    between atoms: _207  and  _209
REMARK   88  A    between atoms: _209  and  _210
REMARK   89  A    between atoms: _209  and  _212
REMARK   90  A    between atoms: _212  and  _213
REMARK   91  A    between atoms: _215  and  _217
REMARK   92  A    between atoms: _217  and  _218
REMARK   93  A    between atoms: _217  and  _220
REMARK   94  A    between atoms: _220  and  _221
REMARK   95  A    between atoms: _226  and  _228
REMARK   96  A    between atoms: _228  and  _229
REMARK   97  A    between atoms: _228  and  _231
REMARK   98  A    between atoms: _231  and  _232
REMARK   99  A    between atoms: _235  and  _237
REMARK  100  A    between atoms: _237  and  _238
REMARK  101  A    between atoms: _237  and  _240
REMARK  102  A    between atoms: _240  and  _241
REMARK  103  A    between atoms: _252  and  _253
REMARK  104  A    between atoms: _258  and  _260
REMARK  105  A    between atoms: _260  and  _261
REMARK  106  A    between atoms: _260  and  _263
REMARK  107  A    between atoms: _263  and  _264
REMARK  108  A    between atoms: _267  and  _269
REMARK  109  A    between atoms: _269  and  _270
REMARK  110  A    between atoms: _269  and  _272
REMARK  111  A    between atoms: _272  and  _273
REMARK  112  A    between atoms: _278  and  _280
REMARK  113  A    between atoms: _280  and  _281
REMARK  114  A    between atoms: _283  and  _285
REMARK  115  A    between atoms: _285  and  _286
REMARK  116  A    between atoms: _285  and  _288
REMARK  117  A    between atoms: _288  and  _289
REMARK  118  A    between atoms: _299  and  _301
REMARK  119  A    between atoms: _301  and  _302
REMARK  120  A    between atoms: _301  and  _304
REMARK  121  A    between atoms: _304  and  _305
REMARK  122  A    between atoms: _310  and  _311
REMARK  123  A    between atoms: _313  and  _315
REMARK  124  A    between atoms: _315  and  _316
REMARK  125  A    between atoms: _315  and  _318
REMARK  126  A    between atoms: _318  and  _319
REMARK  127  A    between atoms: _322  and  _324
REMARK  128  A    between atoms: _324  and  _325
REMARK  129  A    between atoms: _324  and  _327
REMARK  130  A    between atoms: _327  and  _328
REMARK  131  A    between atoms: _333  and  _335
REMARK  132  A    between atoms: _335  and  _336
REMARK  133  A    between atoms: _335  and  _338
REMARK  134  A    between atoms: _338  and  _339
REMARK  135  A    between atoms: _344  and  _346
REMARK  136  A    between atoms: _346  and  _347
REMARK  137  A    between atoms: _346  and  _349
REMARK  138  A    between atoms: _349  and  _350
REMARK  139  A    between atoms: _350  and  _351
REMARK  140  A    between atoms: _354  and  _356
REMARK  141  A    between atoms: _356  and  _357
REMARK  142  A    between atoms: _359  and  _361
REMARK  143  A    between atoms: _361  and  _362
REMARK  144  A    between atoms: _361  and  _364
REMARK  145  A    between atoms: _364  and  _365
REMARK  146  A    between atoms: _367  and  _369
REMARK  147  A    between atoms: _369  and  _370
REMARK  148  A    between atoms: _369  and  _372
REMARK  149  A    between atoms: _372  and  _373
REMARK  150  A    between atoms: _378  and  _379
REMARK  151  A    between atoms: _381  and  _383
REMARK  152  A    between atoms: _383  and  _384
REMARK  153  A    between atoms: _383  and  _386
REMARK  154  A    between atoms: _386  and  _387
REMARK  155  A    between atoms: _392  and  _394
REMARK  156  A    between atoms: _394  and  _395
REMARK  157  A    between atoms: _397  and  _399
REMARK  158  A    between atoms: _399  and  _400
REMARK  159  A    between atoms: _399  and  _402
REMARK  160  A    between atoms: _402  and  _403
REMARK  161  A    between atoms: _408  and  _410
REMARK  162  A    between atoms: _410  and  _411
REMARK  163  A    between atoms: _410  and  _413
REMARK  164  A    between atoms: _413  and  _414
REMARK  165  A    between atoms: _424  and  _426
REMARK  166  A    between atoms: _426  and  _427
REMARK  167  A    between atoms: _426  and  _429
REMARK  168  A    between atoms: _429  and  _430
REMARK  169  A    between atoms: _435  and  _437
REMARK  170  A    between atoms: _437  and  _438
REMARK  171  A    between atoms: _437  and  _440
REMARK  172  A    between atoms: _440  and  _441
REMARK  173  A    between atoms: _441  and  _442
REMARK  174  A    between atoms: _442  and  _443
REMARK  175  A    between atoms: _443  and  _444
REMARK  176  A    between atoms: _448  and  _450
REMARK  177  A    between atoms: _450  and  _451
REMARK  178  A    between atoms: _450  and  _453
REMARK  179  A    between atoms: _453  and  _454
REMARK  180  A    between atoms: _460  and  _462
REMARK  181  A    between atoms: _462  and  _463
REMARK  182  A    between atoms: _465  and  _467
REMARK  183  A    between atoms: _467  and  _468
REMARK  184  A    between atoms: _467  and  _470
REMARK  185  A    between atoms: _470  and  _471
REMARK  186  A    between atoms: _473  and  _475
REMARK  187  A    between atoms: _475  and  _476
REMARK  188  A    between atoms: _475  and  _478
REMARK  189  A    between atoms: _478  and  _479
REMARK  190  A    between atoms: _479  and  _480
REMARK  191  A    between atoms: _480  and  _481
REMARK  192  A    between atoms: _481  and  _482
REMARK  193  A    between atoms: _486  and  _488
REMARK  194  A    between atoms: _488  and  _489
REMARK  195  A    between atoms: _488  and  _491
REMARK  196  A    between atoms: _491  and  _492
REMARK  197  A    between atoms: _497  and  _499
REMARK  198  A    between atoms: _499  and  _500
REMARK  199  A    between atoms: _499  and  _502
REMARK  200  A    between atoms: _502  and  _503
REMARK  201  A    between atoms: _503  and  _504
REMARK  202  A    between atoms: _504  and  _505
REMARK  203  A    between atoms: _514  and  _516
REMARK  204  A    between atoms: _516  and  _517
REMARK  205  A    between atoms: _516  and  _519
REMARK  206  A    between atoms: _519  and  _520
REMARK  207  A    between atoms: _520  and  _521
REMARK  208  A    between atoms: _526  and  _528
REMARK  209  A    between atoms: _528  and  _529
REMARK  210  A    between atoms: _528  and  _531
REMARK  211  A    between atoms: _531  and  _532
REMARK  212  A    between atoms: _532  and  _533
REMARK  213  A    between atoms: _538  and  _540
REMARK  214  A    between atoms: _540  and  _541
REMARK  215  A    between atoms: _540  and  _543
REMARK  216  A    between atoms: _543  and  _544
REMARK  217  A    between atoms: _544  and  _545
REMARK  218  A    between atoms: _547  and  _549
REMARK  219  A    between atoms: _549  and  _550
REMARK  220  A    between atoms: _549  and  _552
REMARK  221  A    between atoms: _552  and  _553
REMARK  222  A    between atoms: _555  and  _557
REMARK  223  A    between atoms: _557  and  _558
REMARK  224  A    between atoms: _557  and  _560
REMARK  225  A    between atoms: _560  and  _561
REMARK  226  A    between atoms: _566  and  _567
REMARK  227  A    between atoms: _569  and  _571
REMARK  228  A    between atoms: _571  and  _572
REMARK  229  A    between atoms: _571  and  _574
REMARK  230  A    between atoms: _574  and  _575
REMARK  231  A    between atoms: _585  and  _587
REMARK  232  A    between atoms: _587  and  _588
REMARK  233  A    between atoms: _587  and  _590
REMARK  234  A    between atoms: _590  and  _591
REMARK  235  A    between atoms: _594  and  _596
REMARK  236  A    between atoms: _596  and  _597
REMARK  237  A    between atoms: _600  and  _602
REMARK  238  A    between atoms: _602  and  _603
REMARK  239  A    between atoms: _602  and  _605
REMARK  240  A    between atoms: _605  and  _606
REMARK                            x       y       z     vdW  Elec       q    Type
REMARK                         _______ _______ _______ _____ _____    ______ ____
ROOT
ATOM      1  O   HOH     1     -34.182  16.276 -10.207  0.00  0.00    +0.000 OA
ENDROOT
TORSDOF 0
REMARK  Name = ../refined-set-2016/4ua8/4ua8_pocket.pdb
REMARK  240 active torsions:
REMARK  status: ('A' for Active; 'I' for Inactive)
REMARK    1  A    between atoms: _1  and  _3
REMARK    2  A    between atoms: _3  and  _4
REMARK    3  A    between atoms: _7  and  _8
REMARK    4  A    between atoms: _13  and  _15
REMARK    5  A    between atoms: _15  and  _16
REMARK    6  A    between atoms: _19  and  _21
REMARK    7  A    between atoms: _21  and  _22
REMARK    8  A    between atoms: _21  and  _24
REMARK    9  A    between atoms: _24  and  _25
REMARK   10  A    between atoms: _25  and  _26
REMARK   11  A    between atoms: _29  and  _31
REMARK   12  A    between atoms: _31  and  _32
REMARK   13  A    between atoms: _31  and  _34
REMARK   14  A    between atoms: _34  and  _35
REMARK   15  A    between atoms: _38  and  _40
REMARK   16  A    between atoms: _40  and  _41
REMARK   17  A    between atoms: _40  and  _43
REMARK   18  A    between atoms: _43  and  _44
REMARK   19  A    between atoms: _46  and  _48
REMARK   20  A    between atoms: _48  and  _49
REMARK   21  A    between atoms: _48  and  _51
REMARK   22  A    between atoms: _51  and  _52
REMARK   23  A    between atoms: _54  and  _56
REMARK   24  A    between atoms: _56  and  _57
REMARK   25  A    between atoms: _56  and  _59
REMARK   26  A    between atoms: _59  and  _60
REMARK   27  A    between atoms: _60  and  _61
REMARK   28  A    between atoms: _64  and  _66
REMARK   29  A    between atoms: _66  and  _67
REMARK   30  A    between atoms: _66  and  _69
REMARK   31  A    between atoms: _69  and  _70
REMARK   32  A    between atoms: _72  and  _74
REMARK   33  A    between atoms: _74  and  _75
REMARK   34  A    between atoms: _74  and  _77
REMARK   35  A    between atoms: _77  and  _78
REMARK   36  A    between atoms: _81  and  _83
REMARK   37  A    between atoms: _83  and  _84
REMARK   38  A    between atoms: _87  and  _89
REMARK   39  A    between atoms: _89  and  _90
REMARK   40  A    between atoms: _89  and  _92
REMARK   41  A    between atoms: _92  and  _93
REMARK   42  A    between atoms: _93  and  _94
REMARK   43  A    between atoms: _94  and  _95
REMARK   44  A    between atoms: _95  and  _96
REMARK   45  A    between atoms: _100  and  _102
REMARK   46  A    between atoms: _102  and  _103
REMARK   47  A    between atoms: _102  and  _105
REMARK   48  A    between atoms: _105  and  _106
REMARK   49  A    between atoms: _109  and  _111
REMARK   50  A    between atoms: _111  and  _112
REMARK   51  A    between atoms: _111  and  _114
REMARK   52  A    between atoms: _114  and  _115
REMARK   53  A    between atoms: _115  and  _116
REMARK   54  A    between atoms: _118  and  _120
REMARK   55  A    between atoms: _120  and  _121
REMARK   56  A    between atoms: _120  and  _123
REMARK   57  A    between atoms: _123  and  _124
REMARK   58  A    between atoms: _130  and  _132
REMARK   59  A    between atoms: _132  and  _133
REMARK   60  A    between atoms: _136  and  _138
REMARK   61  A    between atoms: _138  and  _139
REMARK   62  A    between atoms: _138  and  _141
REMARK   63  A    between atoms: _141  and  _142
REMARK   64  A    between atoms: _147  and  _149
REMARK   65  A    between atoms: _149  and  _150
REMARK   66  A    between atoms: _149  and  _152
REMARK   67  A    between atoms: _152  and  _153
REMARK   68  A    between atoms: _156  and  _158
REMARK   69  A    between atoms: _158  and  _159
REMARK   70  A    between atoms: _158  and  _161
REMARK   71  A    between atoms: _161  and  _162
REMARK   72  A    between atoms: _162  and  _163
REMARK   73  A    between atoms: _168  and  _170
REMARK   74  A    between atoms: _170  and  _171
REMARK   75  A    between atoms: _170  and  _173
REMARK   76  A    between atoms: _173  and  _174
REMARK   77  A    between atoms: _178  and  _179
REMARK   78  A    between atoms: _184  and  _186
REMARK   79  A    between atoms: _186  and  _187
REMARK   80  A    between atoms: _186  and  _189
REMARK   81  A    between atoms: _189  and  _190
REMARK   82  A    between atoms: _195  and  _196
REMARK   83  A    between atoms: _198  and  _200
REMARK   84  A    between atoms: _200  and  _201
REMARK   85  A    between atoms: _200  and  _203
REMARK   86  A    between atoms: _203  and  _204
REMARK   87  A    between atoms: _207  and  _209
REMARK   88  A    between atoms: _209  and  _210
REMARK   89  A    between atoms: _209  and  _212
REMARK   90  A    between atoms: _212  and  _213
REMARK   91  A    between atoms: _215  and  _217
REMARK   92  A    between atoms: _217  and  _218
REMARK   93  A    between atoms: _217  and  _220
REMARK   94  A    between atoms: _220  and  _221
REMARK   95  A    between atoms: _226  and  _228
REMARK   96  A    between atoms: _228  and  _229
REMARK   97  A    between atoms: _228  and  _231
REMARK   98  A    between atoms: _231  and  _232
REMARK   99  A    between atoms: _235  and  _237
REMARK  100  A    between atoms: _237  and  _238
REMARK  101  A    between atoms: _237  and  _240
REMARK  102  A    between atoms: _240  and  _241
REMARK  103  A    between atoms: _252  and  _253
REMARK  104  A    between atoms: _258  and  _260
REMARK  105  A    between atoms: _260  and  _261
REMARK  106  A    between atoms: _260  and  _263
REMARK  107  A    between atoms: _263  and  _264
REMARK  108  A    between atoms: _267  and  _269
REMARK  109  A    between atoms: _269  and  _270
REMARK  110  A    between atoms: _269  and  _272
REMARK  111  A    between atoms: _272  and  _273
REMARK  112  A    between atoms: _278  and  _280
REMARK  113  A    between atoms: _280  and  _281
REMARK  114  A    between atoms: _283  and  _285
REMARK  115  A    between atoms: _285  and  _286
REMARK  116  A    between atoms: _285  and  _288
REMARK  117  A    between atoms: _288  and  _289
REMARK  118  A    between atoms: _299  and  _301
REMARK  119  A    between atoms: _301  and  _302
REMARK  120  A    between atoms: _301  and  _304
REMARK  121  A    between atoms: _304  and  _305
REMARK  122  A    between atoms: _310  and  _311
REMARK  123  A    between atoms: _313  and  _315
REMARK  124  A    between atoms: _315  and  _316
REMARK  125  A    between atoms: _315  and  _318
REMARK  126  A    between atoms: _318  and  _319
REMARK  127  A    between atoms: _322  and  _324
REMARK  128  A    between atoms: _324  and  _325
REMARK  129  A    between atoms: _324  and  _327
REMARK  130  A    between atoms: _327  and  _328
REMARK  131  A    between atoms: _333  and  _335
REMARK  132  A    between atoms: _335  and  _336
REMARK  133  A    between atoms: _335  and  _338
REMARK  134  A    between atoms: _338  and  _339
REMARK  135  A    between atoms: _344  and  _346
REMARK  136  A    between atoms: _346  and  _347
REMARK  137  A    between atoms: _346  and  _349
REMARK  138  A    between atoms: _349  and  _350
REMARK  139  A    between atoms: _350  and  _351
REMARK  140  A    between atoms: _354  and  _356
REMARK  141  A    between atoms: _356  and  _357
REMARK  142  A    between atoms: _359  and  _361
REMARK  143  A    between atoms: _361  and  _362
REMARK  144  A    between atoms: _361  and  _364
REMARK  145  A    between atoms: _364  and  _365
REMARK  146  A    between atoms: _367  and  _369
REMARK  147  A    between atoms: _369  and  _370
REMARK  148  A    between atoms: _369  and  _372
REMARK  149  A    between atoms: _372  and  _373
REMARK  150  A    between atoms: _378  and  _379
REMARK  151  A    between atoms: _381  and  _383
REMARK  152  A    between atoms: _383  and  _384
REMARK  153  A    between atoms: _383  and  _386
REMARK  154  A    between atoms: _386  and  _387
REMARK  155  A    between atoms: _392  and  _394
REMARK  156  A    between atoms: _394  and  _395
REMARK  157  A    between atoms: _397  and  _399
REMARK  158  A    between atoms: _399  and  _400
REMARK  159  A    between atoms: _399  and  _402
REMARK  160  A    between atoms: _402  and  _403
REMARK  161  A    between atoms: _408  and  _410
REMARK  162  A    between atoms: _410  and  _411
REMARK  163  A    between atoms: _410  and  _413
REMARK  164  A    between atoms: _413  and  _414
REMARK  165  A    between atoms: _424  and  _426
REMARK  166  A    between atoms: _426  and  _427
REMARK  167  A    between atoms: _426  and  _429
REMARK  168  A    between atoms: _429  and  _430
REMARK  169  A    between atoms: _435  and  _437
REMARK  170  A    between atoms: _437  and  _438
REMARK  171  A    between atoms: _437  and  _440
REMARK  172  A    between atoms: _440  and  _441
REMARK  173  A    between atoms: _441  and  _442
REMARK  174  A    between atoms: _442  and  _443
REMARK  175  A    between atoms: _443  and  _444
REMARK  176  A    between atoms: _448  and  _450
REMARK  177  A    between atoms: _450  and  _451
REMARK  178  A    between atoms: _450  and  _453
REMARK  179  A    between atoms: _453  and  _454
REMARK  180  A    between atoms: _460  and  _462
REMARK  181  A    between atoms: _462  and  _463
REMARK  182  A    between atoms: _465  and  _467
REMARK  183  A    between atoms: _467  and  _468
REMARK  184  A    between atoms: _467  and  _470
REMARK  185  A    between atoms: _470  and  _471
REMARK  186  A    between atoms: _473  and  _475
REMARK  187  A    between atoms: _475  and  _476
REMARK  188  A    between atoms: _475  and  _478
REMARK  189  A    between atoms: _478  and  _479
REMARK  190  A    between atoms: _479  and  _480
REMARK  191  A    between atoms: _480  and  _481
REMARK  192  A    between atoms: _481  and  _482
REMARK  193  A    between atoms: _486  and  _488
REMARK  194  A    between atoms: _488  and  _489
REMARK  195  A    between atoms: _488  and  _491
REMARK  196  A    between atoms: _491  and  _492
REMARK  197  A    between atoms: _497  and  _499
REMARK  198  A    between atoms: _499  and  _500
REMARK  199  A    between atoms: _499  and  _502
REMARK  200  A    between atoms: _502  and  _503
REMARK  201  A    between atoms: _503  and  _504
REMARK  202  A    between atoms: _504  and  _505
REMARK  203  A    between atoms: _514  and  _516
REMARK  204  A    between atoms: _516  and  _517
REMARK  205  A    between atoms: _516  and  _519
REMARK  206  A    between atoms: _519  and  _520
REMARK  207  A    between atoms: _520  and  _521
REMARK  208  A    between atoms: _526  and  _528
REMARK  209  A    between atoms: _528  and  _529
REMARK  210  A    between atoms: _528  and  _531
REMARK  211  A    between atoms: _531  and  _532
REMARK  212  A    between atoms: _532  and  _533
REMARK  213  A    between atoms: _538  and  _540
REMARK  214  A    between atoms: _540  and  _541
REMARK  215  A    between atoms: _540  and  _543
REMARK  216  A    between atoms: _543  and  _544
REMARK  217  A    between atoms: _544  and  _545
REMARK  218  A    between atoms: _547  and  _549
REMARK  219  A    between atoms: _549  and  _550
REMARK  220  A    between atoms: _549  and  _552
REMARK  221  A    between atoms: _552  and  _553
REMARK  222  A    between atoms: _555  and  _557
REMARK  223  A    between atoms: _557  and  _558
REMARK  224  A    between atoms: _557  and  _560
REMARK  225  A    between atoms: _560  and  _561
REMARK  226  A    between atoms: _566  and  _567
REMARK  227  A    between atoms: _569  and  _571
REMARK  228  A    between atoms: _571  and  _572
REMARK  229  A    between atoms: _571  and  _574
REMARK  230  A    between atoms: _574  and  _575
REMARK  231  A    between atoms: _585  and  _587
REMARK  232  A    between atoms: _587  and  _588
REMARK  233  A    between atoms: _587  and  _590
REMARK  234  A    between atoms: _590  and  _591
REMARK  235  A    between atoms: _594  and  _596
REMARK  236  A    between atoms: _596  and  _597
REMARK  237  A    between atoms: _600  and  _602
REMARK  238  A    between atoms: _602  and  _603
REMARK  239  A    between atoms: _602  and  _605
REMARK  240  A    between atoms: _605  and  _606
REMARK                            x       y       z     vdW  Elec       q    Type
REMARK                         _______ _______ _______ _____ _____    ______ ____
ROOT
ATOM      1  O   HOH     1     -25.458   9.811  -9.643  0.00  0.00    +0.000 OA
ENDROOT
TORSDOF 0
REMARK  Name = ../refined-set-2016/4ua8/4ua8_pocket.pdb
REMARK  240 active torsions:
REMARK  status: ('A' for Active; 'I' for Inactive)
REMARK    1  A    between atoms: _1  and  _3
REMARK    2  A    between atoms: _3  and  _4
REMARK    3  A    between atoms: _7  and  _8
REMARK    4  A    between atoms: _13  and  _15
REMARK    5  A    between atoms: _15  and  _16
REMARK    6  A    between atoms: _19  and  _21
REMARK    7  A    between atoms: _21  and  _22
REMARK    8  A    between atoms: _21  and  _24
REMARK    9  A    between atoms: _24  and  _25
REMARK   10  A    between atoms: _25  and  _26
REMARK   11  A    between atoms: _29  and  _31
REMARK   12  A    between atoms: _31  and  _32
REMARK   13  A    between atoms: _31  and  _34
REMARK   14  A    between atoms: _34  and  _35
REMARK   15  A    between atoms: _38  and  _40
REMARK   16  A    between atoms: _40  and  _41
REMARK   17  A    between atoms: _40  and  _43
REMARK   18  A    between atoms: _43  and  _44
REMARK   19  A    between atoms: _46  and  _48
REMARK   20  A    between atoms: _48  and  _49
REMARK   21  A    between atoms: _48  and  _51
REMARK   22  A    between atoms: _51  and  _52
REMARK   23  A    between atoms: _54  and  _56
REMARK   24  A    between atoms: _56  and  _57
REMARK   25  A    between atoms: _56  and  _59
REMARK   26  A    between atoms: _59  and  _60
REMARK   27  A    between atoms: _60  and  _61
REMARK   28  A    between atoms: _64  and  _66
REMARK   29  A    between atoms: _66  and  _67
REMARK   30  A    between atoms: _66  and  _69
REMARK   31  A    between atoms: _69  and  _70
REMARK   32  A    between atoms: _72  and  _74
REMARK   33  A    between atoms: _74  and  _75
REMARK   34  A    between atoms: _74  and  _77
REMARK   35  A    between atoms: _77  and  _78
REMARK   36  A    between atoms: _81  and  _83
REMARK   37  A    between atoms: _83  and  _84
REMARK   38  A    between atoms: _87  and  _89
REMARK   39  A    between atoms: _89  and  _90
REMARK   40  A    between atoms: _89  and  _92
REMARK   41  A    between atoms: _92  and  _93
REMARK   42  A    between atoms: _93  and  _94
REMARK   43  A    between atoms: _94  and  _95
REMARK   44  A    between atoms: _95  and  _96
REMARK   45  A    between atoms: _100  and  _102
REMARK   46  A    between atoms: _102  and  _103
REMARK   47  A    between atoms: _102  and  _105
REMARK   48  A    between atoms: _105  and  _106
REMARK   49  A    between atoms: _109  and  _111
REMARK   50  A    between atoms: _111  and  _112
REMARK   51  A    between atoms: _111  and  _114
REMARK   52  A    between atoms: _114  and  _115
REMARK   53  A    between atoms: _115  and  _116
REMARK   54  A    between atoms: _118  and  _120
REMARK   55  A    between atoms: _120  and  _121
REMARK   56  A    between atoms: _120  and  _123
REMARK   57  A    between atoms: _123  and  _124
REMARK   58  A    between atoms: _130  and  _132
REMARK   59  A    between atoms: _132  and  _133
REMARK   60  A    between atoms: _136  and  _138
REMARK   61  A    between atoms: _138  and  _139
REMARK   62  A    between atoms: _138  and  _141
REMARK   63  A    between atoms: _141  and  _142
REMARK   64  A    between atoms: _147  and  _149
REMARK   65  A    between atoms: _149  and  _150
REMARK   66  A    between atoms: _149  and  _152
REMARK   67  A    between atoms: _152  and  _153
REMARK   68  A    between atoms: _156  and  _158
REMARK   69  A    between atoms: _158  and  _159
REMARK   70  A    between atoms: _158  and  _161
REMARK   71  A    between atoms: _161  and  _162
REMARK   72  A    between atoms: _162  and  _163
REMARK   73  A    between atoms: _168  and  _170
REMARK   74  A    between atoms: _170  and  _171
REMARK   75  A    between atoms: _170  and  _173
REMARK   76  A    between atoms: _173  and  _174
REMARK   77  A    between atoms: _178  and  _179
REMARK   78  A    between atoms: _184  and  _186
REMARK   79  A    between atoms: _186  and  _187
REMARK   80  A    between atoms: _186  and  _189
REMARK   81  A    between atoms: _189  and  _190
REMARK   82  A    between atoms: _195  and  _196
REMARK   83  A    between atoms: _198  and  _200
REMARK   84  A    between atoms: _200  and  _201
REMARK   85  A    between atoms: _200  and  _203
REMARK   86  A    between atoms: _203  and  _204
REMARK   87  A    between atoms: _207  and  _209
REMARK   88  A    between atoms: _209  and  _210
REMARK   89  A    between atoms: _209  and  _212
REMARK   90  A    between atoms: _212  and  _213
REMARK   91  A    between atoms: _215  and  _217
REMARK   92  A    between atoms: _217  and  _218
REMARK   93  A    between atoms: _217  and  _220
REMARK   94  A    between atoms: _220  and  _221
REMARK   95  A    between atoms: _226  and  _228
REMARK   96  A    between atoms: _228  and  _229
REMARK   97  A    between atoms: _228  and  _231
REMARK   98  A    between atoms: _231  and  _232
REMARK   99  A    between atoms: _235  and  _237
REMARK  100  A    between atoms: _237  and  _238
REMARK  101  A    between atoms: _237  and  _240
REMARK  102  A    between atoms: _240  and  _241
REMARK  103  A    between atoms: _252  and  _253
REMARK  104  A    between atoms: _258  and  _260
REMARK  105  A    between atoms: _260  and  _261
REMARK  106  A    between atoms: _260  and  _263
REMARK  107  A    between atoms: _263  and  _264
REMARK  108  A    between atoms: _267  and  _269
REMARK  109  A    between atoms: _269  and  _270
REMARK  110  A    between atoms: _269  and  _272
REMARK  111  A    between atoms: _272  and  _273
REMARK  112  A    between atoms: _278  and  _280
REMARK  113  A    between atoms: _280  and  _281
REMARK  114  A    between atoms: _283  and  _285
REMARK  115  A    between atoms: _285  and  _286
REMARK  116  A    between atoms: _285  and  _288
REMARK  117  A    between atoms: _288  and  _289
REMARK  118  A    between atoms: _299  and  _301
REMARK  119  A    between atoms: _301  and  _302
REMARK  120  A    between atoms: _301  and  _304
REMARK  121  A    between atoms: _304  and  _305
REMARK  122  A    between atoms: _310  and  _311
REMARK  123  A    between atoms: _313  and  _315
REMARK  124  A    between atoms: _315  and  _316
REMARK  125  A    between atoms: _315  and  _318
REMARK  126  A    between atoms: _318  and  _319
REMARK  127  A    between atoms: _322  and  _324
REMARK  128  A    between atoms: _324  and  _325
REMARK  129  A    between atoms: _324  and  _327
REMARK  130  A    between atoms: _327  and  _328
REMARK  131  A    between atoms: _333  and  _335
REMARK  132  A    between atoms: _335  and  _336
REMARK  133  A    between atoms: _335  and  _338
REMARK  134  A    between atoms: _338  and  _339
REMARK  135  A    between atoms: _344  and  _346
REMARK  136  A    between atoms: _346  and  _347
REMARK  137  A    between atoms: _346  and  _349
REMARK  138  A    between atoms: _349  and  _350
REMARK  139  A    between atoms: _350  and  _351
REMARK  140  A    between atoms: _354  and  _356
REMARK  141  A    between atoms: _356  and  _357
REMARK  142  A    between atoms: _359  and  _361
REMARK  143  A    between atoms: _361  and  _362
REMARK  144  A    between atoms: _361  and  _364
REMARK  145  A    between atoms: _364  and  _365
REMARK  146  A    between atoms: _367  and  _369
REMARK  147  A    between atoms: _369  and  _370
REMARK  148  A    between atoms: _369  and  _372
REMARK  149  A    between atoms: _372  and  _373
REMARK  150  A    between atoms: _378  and  _379
REMARK  151  A    between atoms: _381  and  _383
REMARK  152  A    between atoms: _383  and  _384
REMARK  153  A    between atoms: _383  and  _386
REMARK  154  A    between atoms: _386  and  _387
REMARK  155  A    between atoms: _392  and  _394
REMARK  156  A    between atoms: _394  and  _395
REMARK  157  A    between atoms: _397  and  _399
REMARK  158  A    between atoms: _399  and  _400
REMARK  159  A    between atoms: _399  and  _402
REMARK  160  A    between atoms: _402  and  _403
REMARK  161  A    between atoms: _408  and  _410
REMARK  162  A    between atoms: _410  and  _411
REMARK  163  A    between atoms: _410  and  _413
REMARK  164  A    between atoms: _413  and  _414
REMARK  165  A    between atoms: _424  and  _426
REMARK  166  A    between atoms: _426  and  _427
REMARK  167  A    between atoms: _426  and  _429
REMARK  168  A    between atoms: _429  and  _430
REMARK  169  A    between atoms: _435  and  _437
REMARK  170  A    between atoms: _437  and  _438
REMARK  171  A    between atoms: _437  and  _440
REMARK  172  A    between atoms: _440  and  _441
REMARK  173  A    between atoms: _441  and  _442
REMARK  174  A    between atoms: _442  and  _443
REMARK  175  A    between atoms: _443  and  _444
REMARK  176  A    between atoms: _448  and  _450
REMARK  177  A    between atoms: _450  and  _451
REMARK  178  A    between atoms: _450  and  _453
REMARK  179  A    between atoms: _453  and  _454
REMARK  180  A    between atoms: _460  and  _462
REMARK  181  A    between atoms: _462  and  _463
REMARK  182  A    between atoms: _465  and  _467
REMARK  183  A    between atoms: _467  and  _468
REMARK  184  A    between atoms: _467  and  _470
REMARK  185  A    between atoms: _470  and  _471
REMARK  186  A    between atoms: _473  and  _475
REMARK  187  A    between atoms: _475  and  _476
REMARK  188  A    between atoms: _475  and  _478
REMARK  189  A    between atoms: _478  and  _479
REMARK  190  A    between atoms: _479  and  _480
REMARK  191  A    between atoms: _480  and  _481
REMARK  192  A    between atoms: _481  and  _482
REMARK  193  A    between atoms: _486  and  _488
REMARK  194  A    between atoms: _488  and  _489
REMARK  195  A    between atoms: _488  and  _491
REMARK  196  A    between atoms: _491  and  _492
REMARK  197  A    between atoms: _497  and  _499
REMARK  198  A    between atoms: _499  and  _500
REMARK  199  A    between atoms: _499  and  _502
REMARK  200  A    between atoms: _502  and  _503
REMARK  201  A    between atoms: _503  and  _504
REMARK  202  A    between atoms: _504  and  _505
REMARK  203  A    between atoms: _514  and  _516
REMARK  204  A    between atoms: _516  and  _517
REMARK  205  A    between atoms: _516  and  _519
REMARK  206  A    between atoms: _519  and  _520
REMARK  207  A    between atoms: _520  and  _521
REMARK  208  A    between atoms: _526  and  _528
REMARK  209  A    between atoms: _528  and  _529
REMARK  210  A    between atoms: _528  and  _531
REMARK  211  A    between atoms: _531  and  _532
REMARK  212  A    between atoms: _532  and  _533
REMARK  213  A    between atoms: _538  and  _540
REMARK  214  A    between atoms: _540  and  _541
REMARK  215  A    between atoms: _540  and  _543
REMARK  216  A    between atoms: _543  and  _544
REMARK  217  A    between atoms: _544  and  _545
REMARK  218  A    between atoms: _547  and  _549
REMARK  219  A    between atoms: _549  and  _550
REMARK  220  A    between atoms: _549  and  _552
REMARK  221  A    between atoms: _552  and  _553
REMARK  222  A    between atoms: _555  and  _557
REMARK  223  A    between atoms: _557  and  _558
REMARK  224  A    between atoms: _557  and  _560
REMARK  225  A    between atoms: _560  and  _561
REMARK  226  A    between atoms: _566  and  _567
REMARK  227  A    between atoms: _569  and  _571
REMARK  228  A    between atoms: _571  and  _572
REMARK  229  A    between atoms: _571  and  _574
REMARK  230  A    between atoms: _574  and  _575
REMARK  231  A    between atoms: _585  and  _587
REMARK  232  A    between atoms: _587  and  _588
REMARK  233  A    between atoms: _587  and  _590
REMARK  234  A    between atoms: _590  and  _591
REMARK  235  A    between atoms: _594  and  _596
REMARK  236  A    between atoms: _596  and  _597
REMARK  237  A    between atoms: _600  and  _602
REMARK  238  A    between atoms: _602  and  _603
REMARK  239  A    between atoms: _602  and  _605
REMARK  240  A    between atoms: _605  and  _606
REMARK                            x       y       z     vdW  Elec       q    Type
REMARK                         _______ _______ _______ _____ _____    ______ ____
ROOT
ATOM      1  O   HOH     1     -35.640  11.718   2.910  0.00  0.00    +0.000 OA
ENDROOT
TORSDOF 0
REMARK  Name = ../refined-set-2016/4ua8/4ua8_pocket.pdb
REMARK  240 active torsions:
REMARK  status: ('A' for Active; 'I' for Inactive)
REMARK    1  A    between atoms: _1  and  _3
REMARK    2  A    between atoms: _3  and  _4
REMARK    3  A    between atoms: _7  and  _8
REMARK    4  A    between atoms: _13  and  _15
REMARK    5  A    between atoms: _15  and  _16
REMARK    6  A    between atoms: _19  and  _21
REMARK    7  A    between atoms: _21  and  _22
REMARK    8  A    between atoms: _21  and  _24
REMARK    9  A    between atoms: _24  and  _25
REMARK   10  A    between atoms: _25  and  _26
REMARK   11  A    between atoms: _29  and  _31
REMARK   12  A    between atoms: _31  and  _32
REMARK   13  A    between atoms: _31  and  _34
REMARK   14  A    between atoms: _34  and  _35
REMARK   15  A    between atoms: _38  and  _40
REMARK   16  A    between atoms: _40  and  _41
REMARK   17  A    between atoms: _40  and  _43
REMARK   18  A    between atoms: _43  and  _44
REMARK   19  A    between atoms: _46  and  _48
REMARK   20  A    between atoms: _48  and  _49
REMARK   21  A    between atoms: _48  and  _51
REMARK   22  A    between atoms: _51  and  _52
REMARK   23  A    between atoms: _54  and  _56
REMARK   24  A    between atoms: _56  and  _57
REMARK   25  A    between atoms: _56  and  _59
REMARK   26  A    between atoms: _59  and  _60
REMARK   27  A    between atoms: _60  and  _61
REMARK   28  A    between atoms: _64  and  _66
REMARK   29  A    between atoms: _66  and  _67
REMARK   30  A    between atoms: _66  and  _69
REMARK   31  A    between atoms: _69  and  _70
REMARK   32  A    between atoms: _72  and  _74
REMARK   33  A    between atoms: _74  and  _75
REMARK   34  A    between atoms: _74  and  _77
REMARK   35  A    between atoms: _77  and  _78
REMARK   36  A    between atoms: _81  and  _83
REMARK   37  A    between atoms: _83  and  _84
REMARK   38  A    between atoms: _87  and  _89
REMARK   39  A    between atoms: _89  and  _90
REMARK   40  A    between atoms: _89  and  _92
REMARK   41  A    between atoms: _92  and  _93
REMARK   42  A    between atoms: _93  and  _94
REMARK   43  A    between atoms: _94  and  _95
REMARK   44  A    between atoms: _95  and  _96
REMARK   45  A    between atoms: _100  and  _102
REMARK   46  A    between atoms: _102  and  _103
REMARK   47  A    between atoms: _102  and  _105
REMARK   48  A    between atoms: _105  and  _106
REMARK   49  A    between atoms: _109  and  _111
REMARK   50  A    between atoms: _111  and  _112
REMARK   51  A    between atoms: _111  and  _114
REMARK   52  A    between atoms: _114  and  _115
REMARK   53  A    between atoms: _115  and  _116
REMARK   54  A    between atoms: _118  and  _120
REMARK   55  A    between atoms: _120  and  _121
REMARK   56  A    between atoms: _120  and  _123
REMARK   57  A    between atoms: _123  and  _124
REMARK   58  A    between atoms: _130  and  _132
REMARK   59  A    between atoms: _132  and  _133
REMARK   60  A    between atoms: _136  and  _138
REMARK   61  A    between atoms: _138  and  _139
REMARK   62  A    between atoms: _138  and  _141
REMARK   63  A    between atoms: _141  and  _142
REMARK   64  A    between atoms: _147  and  _149
REMARK   65  A    between atoms: _149  and  _150
REMARK   66  A    between atoms: _149  and  _152
REMARK   67  A    between atoms: _152  and  _153
REMARK   68  A    between atoms: _156  and  _158
REMARK   69  A    between atoms: _158  and  _159
REMARK   70  A    between atoms: _158  and  _161
REMARK   71  A    between atoms: _161  and  _162
REMARK   72  A    between atoms: _162  and  _163
REMARK   73  A    between atoms: _168  and  _170
REMARK   74  A    between atoms: _170  and  _171
REMARK   75  A    between atoms: _170  and  _173
REMARK   76  A    between atoms: _173  and  _174
REMARK   77  A    between atoms: _178  and  _179
REMARK   78  A    between atoms: _184  and  _186
REMARK   79  A    between atoms: _186  and  _187
REMARK   80  A    between atoms: _186  and  _189
REMARK   81  A    between atoms: _189  and  _190
REMARK   82  A    between atoms: _195  and  _196
REMARK   83  A    between atoms: _198  and  _200
REMARK   84  A    between atoms: _200  and  _201
REMARK   85  A    between atoms: _200  and  _203
REMARK   86  A    between atoms: _203  and  _204
REMARK   87  A    between atoms: _207  and  _209
REMARK   88  A    between atoms: _209  and  _210
REMARK   89  A    between atoms: _209  and  _212
REMARK   90  A    between atoms: _212  and  _213
REMARK   91  A    between atoms: _215  and  _217
REMARK   92  A    between atoms: _217  and  _218
REMARK   93  A    between atoms: _217  and  _220
REMARK   94  A    between atoms: _220  and  _221
REMARK   95  A    between atoms: _226  and  _228
REMARK   96  A    between atoms: _228  and  _229
REMARK   97  A    between atoms: _228  and  _231
REMARK   98  A    between atoms: _231  and  _232
REMARK   99  A    between atoms: _235  and  _237
REMARK  100  A    between atoms: _237  and  _238
REMARK  101  A    between atoms: _237  and  _240
REMARK  102  A    between atoms: _240  and  _241
REMARK  103  A    between atoms: _252  and  _253
REMARK  104  A    between atoms: _258  and  _260
REMARK  105  A    between atoms: _260  and  _261
REMARK  106  A    between atoms: _260  and  _263
REMARK  107  A    between atoms: _263  and  _264
REMARK  108  A    between atoms: _267  and  _269
REMARK  109  A    between atoms: _269  and  _270
REMARK  110  A    between atoms: _269  and  _272
REMARK  111  A    between atoms: _272  and  _273
REMARK  112  A    between atoms: _278  and  _280
REMARK  113  A    between atoms: _280  and  _281
REMARK  114  A    between atoms: _283  and  _285
REMARK  115  A    between atoms: _285  and  _286
REMARK  116  A    between atoms: _285  and  _288
REMARK  117  A    between atoms: _288  and  _289
REMARK  118  A    between atoms: _299  and  _301
REMARK  119  A    between atoms: _301  and  _302
REMARK  120  A    between atoms: _301  and  _304
REMARK  121  A    between atoms: _304  and  _305
REMARK  122  A    between atoms: _310  and  _311
REMARK  123  A    between atoms: _313  and  _315
REMARK  124  A    between atoms: _315  and  _316
REMARK  125  A    between atoms: _315  and  _318
REMARK  126  A    between atoms: _318  and  _319
REMARK  127  A    between atoms: _322  and  _324
REMARK  128  A    between atoms: _324  and  _325
REMARK  129  A    between atoms: _324  and  _327
REMARK  130  A    between atoms: _327  and  _328
REMARK  131  A    between atoms: _333  and  _335
REMARK  132  A    between atoms: _335  and  _336
REMARK  133  A    between atoms: _335  and  _338
REMARK  134  A    between atoms: _338  and  _339
REMARK  135  A    between atoms: _344  and  _346
REMARK  136  A    between atoms: _346  and  _347
REMARK  137  A    between atoms: _346  and  _349
REMARK  138  A    between atoms: _349  and  _350
REMARK  139  A    between atoms: _350  and  _351
REMARK  140  A    between atoms: _354  and  _356
REMARK  141  A    between atoms: _356  and  _357
REMARK  142  A    between atoms: _359  and  _361
REMARK  143  A    between atoms: _361  and  _362
REMARK  144  A    between atoms: _361  and  _364
REMARK  145  A    between atoms: _364  and  _365
REMARK  146  A    between atoms: _367  and  _369
REMARK  147  A    between atoms: _369  and  _370
REMARK  148  A    between atoms: _369  and  _372
REMARK  149  A    between atoms: _372  and  _373
REMARK  150  A    between atoms: _378  and  _379
REMARK  151  A    between atoms: _381  and  _383
REMARK  152  A    between atoms: _383  and  _384
REMARK  153  A    between atoms: _383  and  _386
REMARK  154  A    between atoms: _386  and  _387
REMARK  155  A    between atoms: _392  and  _394
REMARK  156  A    between atoms: _394  and  _395
REMARK  157  A    between atoms: _397  and  _399
REMARK  158  A    between atoms: _399  and  _400
REMARK  159  A    between atoms: _399  and  _402
REMARK  160  A    between atoms: _402  and  _403
REMARK  161  A    between atoms: _408  and  _410
REMARK  162  A    between atoms: _410  and  _411
REMARK  163  A    between atoms: _410  and  _413
REMARK  164  A    between atoms: _413  and  _414
REMARK  165  A    between atoms: _424  and  _426
REMARK  166  A    between atoms: _426  and  _427
REMARK  167  A    between atoms: _426  and  _429
REMARK  168  A    between atoms: _429  and  _430
REMARK  169  A    between atoms: _435  and  _437
REMARK  170  A    between atoms: _437  and  _438
REMARK  171  A    between atoms: _437  and  _440
REMARK  172  A    between atoms: _440  and  _441
REMARK  173  A    between atoms: _441  and  _442
REMARK  174  A    between atoms: _442  and  _443
REMARK  175  A    between atoms: _443  and  _444
REMARK  176  A    between atoms: _448  and  _450
REMARK  177  A    between atoms: _450  and  _451
REMARK  178  A    between atoms: _450  and  _453
REMARK  179  A    between atoms: _453  and  _454
REMARK  180  A    between atoms: _460  and  _462
REMARK  181  A    between atoms: _462  and  _463
REMARK  182  A    between atoms: _465  and  _467
REMARK  183  A    between atoms: _467  and  _468
REMARK  184  A    between atoms: _467  and  _470
REMARK  185  A    between atoms: _470  and  _471
REMARK  186  A    between atoms: _473  and  _475
REMARK  187  A    between atoms: _475  and  _476
REMARK  188  A    between atoms: _475  and  _478
REMARK  189  A    between atoms: _478  and  _479
REMARK  190  A    between atoms: _479  and  _480
REMARK  191  A    between atoms: _480  and  _481
REMARK  192  A    between atoms: _481  and  _482
REMARK  193  A    between atoms: _486  and  _488
REMARK  194  A    between atoms: _488  and  _489
REMARK  195  A    between atoms: _488  and  _491
REMARK  196  A    between atoms: _491  and  _492
REMARK  197  A    between atoms: _497  and  _499
REMARK  198  A    between atoms: _499  and  _500
REMARK  199  A    between atoms: _499  and  _502
REMARK  200  A    between atoms: _502  and  _503
REMARK  201  A    between atoms: _503  and  _504
REMARK  202  A    between atoms: _504  and  _505
REMARK  203  A    between atoms: _514  and  _516
REMARK  204  A    between atoms: _516  and  _517
REMARK  205  A    between atoms: _516  and  _519
REMARK  206  A    between atoms: _519  and  _520
REMARK  207  A    between atoms: _520  and  _521
REMARK  208  A    between atoms: _526  and  _528
REMARK  209  A    between atoms: _528  and  _529
REMARK  210  A    between atoms: _528  and  _531
REMARK  211  A    between atoms: _531  and  _532
REMARK  212  A    between atoms: _532  and  _533
REMARK  213  A    between atoms: _538  and  _540
REMARK  214  A    between atoms: _540  and  _541
REMARK  215  A    between atoms: _540  and  _543
REMARK  216  A    between atoms: _543  and  _544
REMARK  217  A    between atoms: _544  and  _545
REMARK  218  A    between atoms: _547  and  _549
REMARK  219  A    between atoms: _549  and  _550
REMARK  220  A    between atoms: _549  and  _552
REMARK  221  A    between atoms: _552  and  _553
REMARK  222  A    between atoms: _555  and  _557
REMARK  223  A    between atoms: _557  and  _558
REMARK  224  A    between atoms: _557  and  _560
REMARK  225  A    between atoms: _560  and  _561
REMARK  226  A    between atoms: _566  and  _567
REMARK  227  A    between atoms: _569  and  _571
REMARK  228  A    between atoms: _571  and  _572
REMARK  229  A    between atoms: _571  and  _574
REMARK  230  A    between atoms: _574  and  _575
REMARK  231  A    between atoms: _585  and  _587
REMARK  232  A    between atoms: _587  and  _588
REMARK  233  A    between atoms: _587  and  _590
REMARK  234  A    between atoms: _590  and  _591
REMARK  235  A    between atoms: _594  and  _596
REMARK  236  A    between atoms: _596  and  _597
REMARK  237  A    between atoms: _600  and  _602
REMARK  238  A    between atoms: _602  and  _603
REMARK  239  A    between atoms: _602  and  _605
REMARK  240  A    between atoms: _605  and  _606
REMARK                            x       y       z     vdW  Elec       q    Type
REMARK                         _______ _______ _______ _____ _____    ______ ____
ROOT
ATOM      1  O   HOH     1     -34.061   1.345  -5.757  0.00  0.00    +0.000 OA
ENDROOT
TORSDOF 0
REMARK  Name = ../refined-set-2016/4ua8/4ua8_pocket.pdb
REMARK  240 active torsions:
REMARK  status: ('A' for Active; 'I' for Inactive)
REMARK    1  A    between atoms: _1  and  _3
REMARK    2  A    between atoms: _3  and  _4
REMARK    3  A    between atoms: _7  and  _8
REMARK    4  A    between atoms: _13  and  _15
REMARK    5  A    between atoms: _15  and  _16
REMARK    6  A    between atoms: _19  and  _21
REMARK    7  A    between atoms: _21  and  _22
REMARK    8  A    between atoms: _21  and  _24
REMARK    9  A    between atoms: _24  and  _25
REMARK   10  A    between atoms: _25  and  _26
REMARK   11  A    between atoms: _29  and  _31
REMARK   12  A    between atoms: _31  and  _32
REMARK   13  A    between atoms: _31  and  _34
REMARK   14  A    between atoms: _34  and  _35
REMARK   15  A    between atoms: _38  and  _40
REMARK   16  A    between atoms: _40  and  _41
REMARK   17  A    between atoms: _40  and  _43
REMARK   18  A    between atoms: _43  and  _44
REMARK   19  A    between atoms: _46  and  _48
REMARK   20  A    between atoms: _48  and  _49
REMARK   21  A    between atoms: _48  and  _51
REMARK   22  A    between atoms: _51  and  _52
REMARK   23  A    between atoms: _54  and  _56
REMARK   24  A    between atoms: _56  and  _57
REMARK   25  A    between atoms: _56  and  _59
REMARK   26  A    between atoms: _59  and  _60
REMARK   27  A    between atoms: _60  and  _61
REMARK   28  A    between atoms: _64  and  _66
REMARK   29  A    between atoms: _66  and  _67
REMARK   30  A    between atoms: _66  and  _69
REMARK   31  A    between atoms: _69  and  _70
REMARK   32  A    between atoms: _72  and  _74
REMARK   33  A    between atoms: _74  and  _75
REMARK   34  A    between atoms: _74  and  _77
REMARK   35  A    between atoms: _77  and  _78
REMARK   36  A    between atoms: _81  and  _83
REMARK   37  A    between atoms: _83  and  _84
REMARK   38  A    between atoms: _87  and  _89
REMARK   39  A    between atoms: _89  and  _90
REMARK   40  A    between atoms: _89  and  _92
REMARK   41  A    between atoms: _92  and  _93
REMARK   42  A    between atoms: _93  and  _94
REMARK   43  A    between atoms: _94  and  _95
REMARK   44  A    between atoms: _95  and  _96
REMARK   45  A    between atoms: _100  and  _102
REMARK   46  A    between atoms: _102  and  _103
REMARK   47  A    between atoms: _102  and  _105
REMARK   48  A    between atoms: _105  and  _106
REMARK   49  A    between atoms: _109  and  _111
REMARK   50  A    between atoms: _111  and  _112
REMARK   51  A    between atoms: _111  and  _114
REMARK   52  A    between atoms: _114  and  _115
REMARK   53  A    between atoms: _115  and  _116
REMARK   54  A    between atoms: _118  and  _120
REMARK   55  A    between atoms: _120  and  _121
REMARK   56  A    between atoms: _120  and  _123
REMARK   57  A    between atoms: _123  and  _124
REMARK   58  A    between atoms: _130  and  _132
REMARK   59  A    between atoms: _132  and  _133
REMARK   60  A    between atoms: _136  and  _138
REMARK   61  A    between atoms: _138  and  _139
REMARK   62  A    between atoms: _138  and  _141
REMARK   63  A    between atoms: _141  and  _142
REMARK   64  A    between atoms: _147  and  _149
REMARK   65  A    between atoms: _149  and  _150
REMARK   66  A    between atoms: _149  and  _152
REMARK   67  A    between atoms: _152  and  _153
REMARK   68  A    between atoms: _156  and  _158
REMARK   69  A    between atoms: _158  and  _159
REMARK   70  A    between atoms: _158  and  _161
REMARK   71  A    between atoms: _161  and  _162
REMARK   72  A    between atoms: _162  and  _163
REMARK   73  A    between atoms: _168  and  _170
REMARK   74  A    between atoms: _170  and  _171
REMARK   75  A    between atoms: _170  and  _173
REMARK   76  A    between atoms: _173  and  _174
REMARK   77  A    between atoms: _178  and  _179
REMARK   78  A    between atoms: _184  and  _186
REMARK   79  A    between atoms: _186  and  _187
REMARK   80  A    between atoms: _186  and  _189
REMARK   81  A    between atoms: _189  and  _190
REMARK   82  A    between atoms: _195  and  _196
REMARK   83  A    between atoms: _198  and  _200
REMARK   84  A    between atoms: _200  and  _201
REMARK   85  A    between atoms: _200  and  _203
REMARK   86  A    between atoms: _203  and  _204
REMARK   87  A    between atoms: _207  and  _209
REMARK   88  A    between atoms: _209  and  _210
REMARK   89  A    between atoms: _209  and  _212
REMARK   90  A    between atoms: _212  and  _213
REMARK   91  A    between atoms: _215  and  _217
REMARK   92  A    between atoms: _217  and  _218
REMARK   93  A    between atoms: _217  and  _220
REMARK   94  A    between atoms: _220  and  _221
REMARK   95  A    between atoms: _226  and  _228
REMARK   96  A    between atoms: _228  and  _229
REMARK   97  A    between atoms: _228  and  _231
REMARK   98  A    between atoms: _231  and  _232
REMARK   99  A    between atoms: _235  and  _237
REMARK  100  A    between atoms: _237  and  _238
REMARK  101  A    between atoms: _237  and  _240
REMARK  102  A    between atoms: _240  and  _241
REMARK  103  A    between atoms: _252  and  _253
REMARK  104  A    between atoms: _258  and  _260
REMARK  105  A    between atoms: _260  and  _261
REMARK  106  A    between atoms: _260  and  _263
REMARK  107  A    between atoms: _263  and  _264
REMARK  108  A    between atoms: _267  and  _269
REMARK  109  A    between atoms: _269  and  _270
REMARK  110  A    between atoms: _269  and  _272
REMARK  111  A    between atoms: _272  and  _273
REMARK  112  A    between atoms: _278  and  _280
REMARK  113  A    between atoms: _280  and  _281
REMARK  114  A    between atoms: _283  and  _285
REMARK  115  A    between atoms: _285  and  _286
REMARK  116  A    between atoms: _285  and  _288
REMARK  117  A    between atoms: _288  and  _289
REMARK  118  A    between atoms: _299  and  _301
REMARK  119  A    between atoms: _301  and  _302
REMARK  120  A    between atoms: _301  and  _304
REMARK  121  A    between atoms: _304  and  _305
REMARK  122  A    between atoms: _310  and  _311
REMARK  123  A    between atoms: _313  and  _315
REMARK  124  A    between atoms: _315  and  _316
REMARK  125  A    between atoms: _315  and  _318
REMARK  126  A    between atoms: _318  and  _319
REMARK  127  A    between atoms: _322  and  _324
REMARK  128  A    between atoms: _324  and  _325
REMARK  129  A    between atoms: _324  and  _327
REMARK  130  A    between atoms: _327  and  _328
REMARK  131  A    between atoms: _333  and  _335
REMARK  132  A    between atoms: _335  and  _336
REMARK  133  A    between atoms: _335  and  _338
REMARK  134  A    between atoms: _338  and  _339
REMARK  135  A    between atoms: _344  and  _346
REMARK  136  A    between atoms: _346  and  _347
REMARK  137  A    between atoms: _346  and  _349
REMARK  138  A    between atoms: _349  and  _350
REMARK  139  A    between atoms: _350  and  _351
REMARK  140  A    between atoms: _354  and  _356
REMARK  141  A    between atoms: _356  and  _357
REMARK  142  A    between atoms: _359  and  _361
REMARK  143  A    between atoms: _361  and  _362
REMARK  144  A    between atoms: _361  and  _364
REMARK  145  A    between atoms: _364  and  _365
REMARK  146  A    between atoms: _367  and  _369
REMARK  147  A    between atoms: _369  and  _370
REMARK  148  A    between atoms: _369  and  _372
REMARK  149  A    between atoms: _372  and  _373
REMARK  150  A    between atoms: _378  and  _379
REMARK  151  A    between atoms: _381  and  _383
REMARK  152  A    between atoms: _383  and  _384
REMARK  153  A    between atoms: _383  and  _386
REMARK  154  A    between atoms: _386  and  _387
REMARK  155  A    between atoms: _392  and  _394
REMARK  156  A    between atoms: _394  and  _395
REMARK  157  A    between atoms: _397  and  _399
REMARK  158  A    between atoms: _399  and  _400
REMARK  159  A    between atoms: _399  and  _402
REMARK  160  A    between atoms: _402  and  _403
REMARK  161  A    between atoms: _408  and  _410
REMARK  162  A    between atoms: _410  and  _411
REMARK  163  A    between atoms: _410  and  _413
REMARK  164  A    between atoms: _413  and  _414
REMARK  165  A    between atoms: _424  and  _426
REMARK  166  A    between atoms: _426  and  _427
REMARK  167  A    between atoms: _426  and  _429
REMARK  168  A    between atoms: _429  and  _430
REMARK  169  A    between atoms: _435  and  _437
REMARK  170  A    between atoms: _437  and  _438
REMARK  171  A    between atoms: _437  and  _440
REMARK  172  A    between atoms: _440  and  _441
REMARK  173  A    between atoms: _441  and  _442
REMARK  174  A    between atoms: _442  and  _443
REMARK  175  A    between atoms: _443  and  _444
REMARK  176  A    between atoms: _448  and  _450
REMARK  177  A    between atoms: _450  and  _451
REMARK  178  A    between atoms: _450  and  _453
REMARK  179  A    between atoms: _453  and  _454
REMARK  180  A    between atoms: _460  and  _462
REMARK  181  A    between atoms: _462  and  _463
REMARK  182  A    between atoms: _465  and  _467
REMARK  183  A    between atoms: _467  and  _468
REMARK  184  A    between atoms: _467  and  _470
REMARK  185  A    between atoms: _470  and  _471
REMARK  186  A    between atoms: _473  and  _475
REMARK  187  A    between atoms: _475  and  _476
REMARK  188  A    between atoms: _475  and  _478
REMARK  189  A    between atoms: _478  and  _479
REMARK  190  A    between atoms: _479  and  _480
REMARK  191  A    between atoms: _480  and  _481
REMARK  192  A    between atoms: _481  and  _482
REMARK  193  A    between atoms: _486  and  _488
REMARK  194  A    between atoms: _488  and  _489
REMARK  195  A    between atoms: _488  and  _491
REMARK  196  A    between atoms: _491  and  _492
REMARK  197  A    between atoms: _497  and  _499
REMARK  198  A    between atoms: _499  and  _500
REMARK  199  A    between atoms: _499  and  _502
REMARK  200  A    between atoms: _502  and  _503
REMARK  201  A    between atoms: _503  and  _504
REMARK  202  A    between atoms: _504  and  _505
REMARK  203  A    between atoms: _514  and  _516
REMARK  204  A    between atoms: _516  and  _517
REMARK  205  A    between atoms: _516  and  _519
REMARK  206  A    between atoms: _519  and  _520
REMARK  207  A    between atoms: _520  and  _521
REMARK  208  A    between atoms: _526  and  _528
REMARK  209  A    between atoms: _528  and  _529
REMARK  210  A    between atoms: _528  and  _531
REMARK  211  A    between atoms: _531  and  _532
REMARK  212  A    between atoms: _532  and  _533
REMARK  213  A    between atoms: _538  and  _540
REMARK  214  A    between atoms: _540  and  _541
REMARK  215  A    between atoms: _540  and  _543
REMARK  216  A    between atoms: _543  and  _544
REMARK  217  A    between atoms: _544  and  _545
REMARK  218  A    between atoms: _547  and  _549
REMARK  219  A    between atoms: _549  and  _550
REMARK  220  A    between atoms: _549  and  _552
REMARK  221  A    between atoms: _552  and  _553
REMARK  222  A    between atoms: _555  and  _557
REMARK  223  A    between atoms: _557  and  _558
REMARK  224  A    between atoms: _557  and  _560
REMARK  225  A    between atoms: _560  and  _561
REMARK  226  A    between atoms: _566  and  _567
REMARK  227  A    between atoms: _569  and  _571
REMARK  228  A    between atoms: _571  and  _572
REMARK  229  A    between atoms: _571  and  _574
REMARK  230  A    between atoms: _574  and  _575
REMARK  231  A    between atoms: _585  and  _587
REMARK  232  A    between atoms: _587  and  _588
REMARK  233  A    between atoms: _587  and  _590
REMARK  234  A    between atoms: _590  and  _591
REMARK  235  A    between atoms: _594  and  _596
REMARK  236  A    between atoms: _596  and  _597
REMARK  237  A    between atoms: _600  and  _602
REMARK  238  A    between atoms: _602  and  _603
REMARK  239  A    between atoms: _602  and  _605
REMARK  240  A    between atoms: _605  and  _606
REMARK                            x       y       z     vdW  Elec       q    Type
REMARK                         _______ _______ _______ _____ _____    ______ ____
ROOT
ATOM      1  O   HOH     1     -33.084   9.997 -13.076  0.00  0.00    +0.000 OA
ENDROOT
TORSDOF 0
REMARK  Name = ../refined-set-2016/4ua8/4ua8_pocket.pdb
REMARK  240 active torsions:
REMARK  status: ('A' for Active; 'I' for Inactive)
REMARK    1  A    between atoms: _1  and  _3
REMARK    2  A    between atoms: _3  and  _4
REMARK    3  A    between atoms: _7  and  _8
REMARK    4  A    between atoms: _13  and  _15
REMARK    5  A    between atoms: _15  and  _16
REMARK    6  A    between atoms: _19  and  _21
REMARK    7  A    between atoms: _21  and  _22
REMARK    8  A    between atoms: _21  and  _24
REMARK    9  A    between atoms: _24  and  _25
REMARK   10  A    between atoms: _25  and  _26
REMARK   11  A    between atoms: _29  and  _31
REMARK   12  A    between atoms: _31  and  _32
REMARK   13  A    between atoms: _31  and  _34
REMARK   14  A    between atoms: _34  and  _35
REMARK   15  A    between atoms: _38  and  _40
REMARK   16  A    between atoms: _40  and  _41
REMARK   17  A    between atoms: _40  and  _43
REMARK   18  A    between atoms: _43  and  _44
REMARK   19  A    between atoms: _46  and  _48
REMARK   20  A    between atoms: _48  and  _49
REMARK   21  A    between atoms: _48  and  _51
REMARK   22  A    between atoms: _51  and  _52
REMARK   23  A    between atoms: _54  and  _56
REMARK   24  A    between atoms: _56  and  _57
REMARK   25  A    between atoms: _56  and  _59
REMARK   26  A    between atoms: _59  and  _60
REMARK   27  A    between atoms: _60  and  _61
REMARK   28  A    between atoms: _64  and  _66
REMARK   29  A    between atoms: _66  and  _67
REMARK   30  A    between atoms: _66  and  _69
REMARK   31  A    between atoms: _69  and  _70
REMARK   32  A    between atoms: _72  and  _74
REMARK   33  A    between atoms: _74  and  _75
REMARK   34  A    between atoms: _74  and  _77
REMARK   35  A    between atoms: _77  and  _78
REMARK   36  A    between atoms: _81  and  _83
REMARK   37  A    between atoms: _83  and  _84
REMARK   38  A    between atoms: _87  and  _89
REMARK   39  A    between atoms: _89  and  _90
REMARK   40  A    between atoms: _89  and  _92
REMARK   41  A    between atoms: _92  and  _93
REMARK   42  A    between atoms: _93  and  _94
REMARK   43  A    between atoms: _94  and  _95
REMARK   44  A    between atoms: _95  and  _96
REMARK   45  A    between atoms: _100  and  _102
REMARK   46  A    between atoms: _102  and  _103
REMARK   47  A    between atoms: _102  and  _105
REMARK   48  A    between atoms: _105  and  _106
REMARK   49  A    between atoms: _109  and  _111
REMARK   50  A    between atoms: _111  and  _112
REMARK   51  A    between atoms: _111  and  _114
REMARK   52  A    between atoms: _114  and  _115
REMARK   53  A    between atoms: _115  and  _116
REMARK   54  A    between atoms: _118  and  _120
REMARK   55  A    between atoms: _120  and  _121
REMARK   56  A    between atoms: _120  and  _123
REMARK   57  A    between atoms: _123  and  _124
REMARK   58  A    between atoms: _130  and  _132
REMARK   59  A    between atoms: _132  and  _133
REMARK   60  A    between atoms: _136  and  _138
REMARK   61  A    between atoms: _138  and  _139
REMARK   62  A    between atoms: _138  and  _141
REMARK   63  A    between atoms: _141  and  _142
REMARK   64  A    between atoms: _147  and  _149
REMARK   65  A    between atoms: _149  and  _150
REMARK   66  A    between atoms: _149  and  _152
REMARK   67  A    between atoms: _152  and  _153
REMARK   68  A    between atoms: _156  and  _158
REMARK   69  A    between atoms: _158  and  _159
REMARK   70  A    between atoms: _158  and  _161
REMARK   71  A    between atoms: _161  and  _162
REMARK   72  A    between atoms: _162  and  _163
REMARK   73  A    between atoms: _168  and  _170
REMARK   74  A    between atoms: _170  and  _171
REMARK   75  A    between atoms: _170  and  _173
REMARK   76  A    between atoms: _173  and  _174
REMARK   77  A    between atoms: _178  and  _179
REMARK   78  A    between atoms: _184  and  _186
REMARK   79  A    between atoms: _186  and  _187
REMARK   80  A    between atoms: _186  and  _189
REMARK   81  A    between atoms: _189  and  _190
REMARK   82  A    between atoms: _195  and  _196
REMARK   83  A    between atoms: _198  and  _200
REMARK   84  A    between atoms: _200  and  _201
REMARK   85  A    between atoms: _200  and  _203
REMARK   86  A    between atoms: _203  and  _204
REMARK   87  A    between atoms: _207  and  _209
REMARK   88  A    between atoms: _209  and  _210
REMARK   89  A    between atoms: _209  and  _212
REMARK   90  A    between atoms: _212  and  _213
REMARK   91  A    between atoms: _215  and  _217
REMARK   92  A    between atoms: _217  and  _218
REMARK   93  A    between atoms: _217  and  _220
REMARK   94  A    between atoms: _220  and  _221
REMARK   95  A    between atoms: _226  and  _228
REMARK   96  A    between atoms: _228  and  _229
REMARK   97  A    between atoms: _228  and  _231
REMARK   98  A    between atoms: _231  and  _232
REMARK   99  A    between atoms: _235  and  _237
REMARK  100  A    between atoms: _237  and  _238
REMARK  101  A    between atoms: _237  and  _240
REMARK  102  A    between atoms: _240  and  _241
REMARK  103  A    between atoms: _252  and  _253
REMARK  104  A    between atoms: _258  and  _260
REMARK  105  A    between atoms: _260  and  _261
REMARK  106  A    between atoms: _260  and  _263
REMARK  107  A    between atoms: _263  and  _264
REMARK  108  A    between atoms: _267  and  _269
REMARK  109  A    between atoms: _269  and  _270
REMARK  110  A    between atoms: _269  and  _272
REMARK  111  A    between atoms: _272  and  _273
REMARK  112  A    between atoms: _278  and  _280
REMARK  113  A    between atoms: _280  and  _281
REMARK  114  A    between atoms: _283  and  _285
REMARK  115  A    between atoms: _285  and  _286
REMARK  116  A    between atoms: _285  and  _288
REMARK  117  A    between atoms: _288  and  _289
REMARK  118  A    between atoms: _299  and  _301
REMARK  119  A    between atoms: _301  and  _302
REMARK  120  A    between atoms: _301  and  _304
REMARK  121  A    between atoms: _304  and  _305
REMARK  122  A    between atoms: _310  and  _311
REMARK  123  A    between atoms: _313  and  _315
REMARK  124  A    between atoms: _315  and  _316
REMARK  125  A    between atoms: _315  and  _318
REMARK  126  A    between atoms: _318  and  _319
REMARK  127  A    between atoms: _322  and  _324
REMARK  128  A    between atoms: _324  and  _325
REMARK  129  A    between atoms: _324  and  _327
REMARK  130  A    between atoms: _327  and  _328
REMARK  131  A    between atoms: _333  and  _335
REMARK  132  A    between atoms: _335  and  _336
REMARK  133  A    between atoms: _335  and  _338
REMARK  134  A    between atoms: _338  and  _339
REMARK  135  A    between atoms: _344  and  _346
REMARK  136  A    between atoms: _346  and  _347
REMARK  137  A    between atoms: _346  and  _349
REMARK  138  A    between atoms: _349  and  _350
REMARK  139  A    between atoms: _350  and  _351
REMARK  140  A    between atoms: _354  and  _356
REMARK  141  A    between atoms: _356  and  _357
REMARK  142  A    between atoms: _359  and  _361
REMARK  143  A    between atoms: _361  and  _362
REMARK  144  A    between atoms: _361  and  _364
REMARK  145  A    between atoms: _364  and  _365
REMARK  146  A    between atoms: _367  and  _369
REMARK  147  A    between atoms: _369  and  _370
REMARK  148  A    between atoms: _369  and  _372
REMARK  149  A    between atoms: _372  and  _373
REMARK  150  A    between atoms: _378  and  _379
REMARK  151  A    between atoms: _381  and  _383
REMARK  152  A    between atoms: _383  and  _384
REMARK  153  A    between atoms: _383  and  _386
REMARK  154  A    between atoms: _386  and  _387
REMARK  155  A    between atoms: _392  and  _394
REMARK  156  A    between atoms: _394  and  _395
REMARK  157  A    between atoms: _397  and  _399
REMARK  158  A    between atoms: _399  and  _400
REMARK  159  A    between atoms: _399  and  _402
REMARK  160  A    between atoms: _402  and  _403
REMARK  161  A    between atoms: _408  and  _410
REMARK  162  A    between atoms: _410  and  _411
REMARK  163  A    between atoms: _410  and  _413
REMARK  164  A    between atoms: _413  and  _414
REMARK  165  A    between atoms: _424  and  _426
REMARK  166  A    between atoms: _426  and  _427
REMARK  167  A    between atoms: _426  and  _429
REMARK  168  A    between atoms: _429  and  _430
REMARK  169  A    between atoms: _435  and  _437
REMARK  170  A    between atoms: _437  and  _438
REMARK  171  A    between atoms: _437  and  _440
REMARK  172  A    between atoms: _440  and  _441
REMARK  173  A    between atoms: _441  and  _442
REMARK  174  A    between atoms: _442  and  _443
REMARK  175  A    between atoms: _443  and  _444
REMARK  176  A    between atoms: _448  and  _450
REMARK  177  A    between atoms: _450  and  _451
REMARK  178  A    between atoms: _450  and  _453
REMARK  179  A    between atoms: _453  and  _454
REMARK  180  A    between atoms: _460  and  _462
REMARK  181  A    between atoms: _462  and  _463
REMARK  182  A    between atoms: _465  and  _467
REMARK  183  A    between atoms: _467  and  _468
REMARK  184  A    between atoms: _467  and  _470
REMARK  185  A    between atoms: _470  and  _471
REMARK  186  A    between atoms: _473  and  _475
REMARK  187  A    between atoms: _475  and  _476
REMARK  188  A    between atoms: _475  and  _478
REMARK  189  A    between atoms: _478  and  _479
REMARK  190  A    between atoms: _479  and  _480
REMARK  191  A    between atoms: _480  and  _481
REMARK  192  A    between atoms: _481  and  _482
REMARK  193  A    between atoms: _486  and  _488
REMARK  194  A    between atoms: _488  and  _489
REMARK  195  A    between atoms: _488  and  _491
REMARK  196  A    between atoms: _491  and  _492
REMARK  197  A    between atoms: _497  and  _499
REMARK  198  A    between atoms: _499  and  _500
REMARK  199  A    between atoms: _499  and  _502
REMARK  200  A    between atoms: _502  and  _503
REMARK  201  A    between atoms: _503  and  _504
REMARK  202  A    between atoms: _504  and  _505
REMARK  203  A    between atoms: _514  and  _516
REMARK  204  A    between atoms: _516  and  _517
REMARK  205  A    between atoms: _516  and  _519
REMARK  206  A    between atoms: _519  and  _520
REMARK  207  A    between atoms: _520  and  _521
REMARK  208  A    between atoms: _526  and  _528
REMARK  209  A    between atoms: _528  and  _529
REMARK  210  A    between atoms: _528  and  _531
REMARK  211  A    between atoms: _531  and  _532
REMARK  212  A    between atoms: _532  and  _533
REMARK  213  A    between atoms: _538  and  _540
REMARK  214  A    between atoms: _540  and  _541
REMARK  215  A    between atoms: _540  and  _543
REMARK  216  A    between atoms: _543  and  _544
REMARK  217  A    between atoms: _544  and  _545
REMARK  218  A    between atoms: _547  and  _549
REMARK  219  A    between atoms: _549  and  _550
REMARK  220  A    between atoms: _549  and  _552
REMARK  221  A    between atoms: _552  and  _553
REMARK  222  A    between atoms: _555  and  _557
REMARK  223  A    between atoms: _557  and  _558
REMARK  224  A    between atoms: _557  and  _560
REMARK  225  A    between atoms: _560  and  _561
REMARK  226  A    between atoms: _566  and  _567
REMARK  227  A    between atoms: _569  and  _571
REMARK  228  A    between atoms: _571  and  _572
REMARK  229  A    between atoms: _571  and  _574
REMARK  230  A    between atoms: _574  and  _575
REMARK  231  A    between atoms: _585  and  _587
REMARK  232  A    between atoms: _587  and  _588
REMARK  233  A    between atoms: _587  and  _590
REMARK  234  A    between atoms: _590  and  _591
REMARK  235  A    between atoms: _594  and  _596
REMARK  236  A    between atoms: _596  and  _597
REMARK  237  A    between atoms: _600  and  _602
REMARK  238  A    between atoms: _602  and  _603
REMARK  239  A    between atoms: _602  and  _605
REMARK  240  A    between atoms: _605  and  _606
REMARK                            x       y       z     vdW  Elec       q    Type
REMARK                         _______ _______ _______ _____ _____    ______ ____
ROOT
ATOM      1  O   HOH     1     -28.061   6.764  -7.715  0.00  0.00    +0.000 OA
ENDROOT
TORSDOF 0
REMARK  Name = ../refined-set-2016/4ua8/4ua8_pocket.pdb
REMARK  240 active torsions:
REMARK  status: ('A' for Active; 'I' for Inactive)
REMARK    1  A    between atoms: _1  and  _3
REMARK    2  A    between atoms: _3  and  _4
REMARK    3  A    between atoms: _7  and  _8
REMARK    4  A    between atoms: _13  and  _15
REMARK    5  A    between atoms: _15  and  _16
REMARK    6  A    between atoms: _19  and  _21
REMARK    7  A    between atoms: _21  and  _22
REMARK    8  A    between atoms: _21  and  _24
REMARK    9  A    between atoms: _24  and  _25
REMARK   10  A    between atoms: _25  and  _26
REMARK   11  A    between atoms: _29  and  _31
REMARK   12  A    between atoms: _31  and  _32
REMARK   13  A    between atoms: _31  and  _34
REMARK   14  A    between atoms: _34  and  _35
REMARK   15  A    between atoms: _38  and  _40
REMARK   16  A    between atoms: _40  and  _41
REMARK   17  A    between atoms: _40  and  _43
REMARK   18  A    between atoms: _43  and  _44
REMARK   19  A    between atoms: _46  and  _48
REMARK   20  A    between atoms: _48  and  _49
REMARK   21  A    between atoms: _48  and  _51
REMARK   22  A    between atoms: _51  and  _52
REMARK   23  A    between atoms: _54  and  _56
REMARK   24  A    between atoms: _56  and  _57
REMARK   25  A    between atoms: _56  and  _59
REMARK   26  A    between atoms: _59  and  _60
REMARK   27  A    between atoms: _60  and  _61
REMARK   28  A    between atoms: _64  and  _66
REMARK   29  A    between atoms: _66  and  _67
REMARK   30  A    between atoms: _66  and  _69
REMARK   31  A    between atoms: _69  and  _70
REMARK   32  A    between atoms: _72  and  _74
REMARK   33  A    between atoms: _74  and  _75
REMARK   34  A    between atoms: _74  and  _77
REMARK   35  A    between atoms: _77  and  _78
REMARK   36  A    between atoms: _81  and  _83
REMARK   37  A    between atoms: _83  and  _84
REMARK   38  A    between atoms: _87  and  _89
REMARK   39  A    between atoms: _89  and  _90
REMARK   40  A    between atoms: _89  and  _92
REMARK   41  A    between atoms: _92  and  _93
REMARK   42  A    between atoms: _93  and  _94
REMARK   43  A    between atoms: _94  and  _95
REMARK   44  A    between atoms: _95  and  _96
REMARK   45  A    between atoms: _100  and  _102
REMARK   46  A    between atoms: _102  and  _103
REMARK   47  A    between atoms: _102  and  _105
REMARK   48  A    between atoms: _105  and  _106
REMARK   49  A    between atoms: _109  and  _111
REMARK   50  A    between atoms: _111  and  _112
REMARK   51  A    between atoms: _111  and  _114
REMARK   52  A    between atoms: _114  and  _115
REMARK   53  A    between atoms: _115  and  _116
REMARK   54  A    between atoms: _118  and  _120
REMARK   55  A    between atoms: _120  and  _121
REMARK   56  A    between atoms: _120  and  _123
REMARK   57  A    between atoms: _123  and  _124
REMARK   58  A    between atoms: _130  and  _132
REMARK   59  A    between atoms: _132  and  _133
REMARK   60  A    between atoms: _136  and  _138
REMARK   61  A    between atoms: _138  and  _139
REMARK   62  A    between atoms: _138  and  _141
REMARK   63  A    between atoms: _141  and  _142
REMARK   64  A    between atoms: _147  and  _149
REMARK   65  A    between atoms: _149  and  _150
REMARK   66  A    between atoms: _149  and  _152
REMARK   67  A    between atoms: _152  and  _153
REMARK   68  A    between atoms: _156  and  _158
REMARK   69  A    between atoms: _158  and  _159
REMARK   70  A    between atoms: _158  and  _161
REMARK   71  A    between atoms: _161  and  _162
REMARK   72  A    between atoms: _162  and  _163
REMARK   73  A    between atoms: _168  and  _170
REMARK   74  A    between atoms: _170  and  _171
REMARK   75  A    between atoms: _170  and  _173
REMARK   76  A    between atoms: _173  and  _174
REMARK   77  A    between atoms: _178  and  _179
REMARK   78  A    between atoms: _184  and  _186
REMARK   79  A    between atoms: _186  and  _187
REMARK   80  A    between atoms: _186  and  _189
REMARK   81  A    between atoms: _189  and  _190
REMARK   82  A    between atoms: _195  and  _196
REMARK   83  A    between atoms: _198  and  _200
REMARK   84  A    between atoms: _200  and  _201
REMARK   85  A    between atoms: _200  and  _203
REMARK   86  A    between atoms: _203  and  _204
REMARK   87  A    between atoms: _207  and  _209
REMARK   88  A    between atoms: _209  and  _210
REMARK   89  A    between atoms: _209  and  _212
REMARK   90  A    between atoms: _212  and  _213
REMARK   91  A    between atoms: _215  and  _217
REMARK   92  A    between atoms: _217  and  _218
REMARK   93  A    between atoms: _217  and  _220
REMARK   94  A    between atoms: _220  and  _221
REMARK   95  A    between atoms: _226  and  _228
REMARK   96  A    between atoms: _228  and  _229
REMARK   97  A    between atoms: _228  and  _231
REMARK   98  A    between atoms: _231  and  _232
REMARK   99  A    between atoms: _235  and  _237
REMARK  100  A    between atoms: _237  and  _238
REMARK  101  A    between atoms: _237  and  _240
REMARK  102  A    between atoms: _240  and  _241
REMARK  103  A    between atoms: _252  and  _253
REMARK  104  A    between atoms: _258  and  _260
REMARK  105  A    between atoms: _260  and  _261
REMARK  106  A    between atoms: _260  and  _263
REMARK  107  A    between atoms: _263  and  _264
REMARK  108  A    between atoms: _267  and  _269
REMARK  109  A    between atoms: _269  and  _270
REMARK  110  A    between atoms: _269  and  _272
REMARK  111  A    between atoms: _272  and  _273
REMARK  112  A    between atoms: _278  and  _280
REMARK  113  A    between atoms: _280  and  _281
REMARK  114  A    between atoms: _283  and  _285
REMARK  115  A    between atoms: _285  and  _286
REMARK  116  A    between atoms: _285  and  _288
REMARK  117  A    between atoms: _288  and  _289
REMARK  118  A    between atoms: _299  and  _301
REMARK  119  A    between atoms: _301  and  _302
REMARK  120  A    between atoms: _301  and  _304
REMARK  121  A    between atoms: _304  and  _305
REMARK  122  A    between atoms: _310  and  _311
REMARK  123  A    between atoms: _313  and  _315
REMARK  124  A    between atoms: _315  and  _316
REMARK  125  A    between atoms: _315  and  _318
REMARK  126  A    between atoms: _318  and  _319
REMARK  127  A    between atoms: _322  and  _324
REMARK  128  A    between atoms: _324  and  _325
REMARK  129  A    between atoms: _324  and  _327
REMARK  130  A    between atoms: _327  and  _328
REMARK  131  A    between atoms: _333  and  _335
REMARK  132  A    between atoms: _335  and  _336
REMARK  133  A    between atoms: _335  and  _338
REMARK  134  A    between atoms: _338  and  _339
REMARK  135  A    between atoms: _344  and  _346
REMARK  136  A    between atoms: _346  and  _347
REMARK  137  A    between atoms: _346  and  _349
REMARK  138  A    between atoms: _349  and  _350
REMARK  139  A    between atoms: _350  and  _351
REMARK  140  A    between atoms: _354  and  _356
REMARK  141  A    between atoms: _356  and  _357
REMARK  142  A    between atoms: _359  and  _361
REMARK  143  A    between atoms: _361  and  _362
REMARK  144  A    between atoms: _361  and  _364
REMARK  145  A    between atoms: _364  and  _365
REMARK  146  A    between atoms: _367  and  _369
REMARK  147  A    between atoms: _369  and  _370
REMARK  148  A    between atoms: _369  and  _372
REMARK  149  A    between atoms: _372  and  _373
REMARK  150  A    between atoms: _378  and  _379
REMARK  151  A    between atoms: _381  and  _383
REMARK  152  A    between atoms: _383  and  _384
REMARK  153  A    between atoms: _383  and  _386
REMARK  154  A    between atoms: _386  and  _387
REMARK  155  A    between atoms: _392  and  _394
REMARK  156  A    between atoms: _394  and  _395
REMARK  157  A    between atoms: _397  and  _399
REMARK  158  A    between atoms: _399  and  _400
REMARK  159  A    between atoms: _399  and  _402
REMARK  160  A    between atoms: _402  and  _403
REMARK  161  A    between atoms: _408  and  _410
REMARK  162  A    between atoms: _410  and  _411
REMARK  163  A    between atoms: _410  and  _413
REMARK  164  A    between atoms: _413  and  _414
REMARK  165  A    between atoms: _424  and  _426
REMARK  166  A    between atoms: _426  and  _427
REMARK  167  A    between atoms: _426  and  _429
REMARK  168  A    between atoms: _429  and  _430
REMARK  169  A    between atoms: _435  and  _437
REMARK  170  A    between atoms: _437  and  _438
REMARK  171  A    between atoms: _437  and  _440
REMARK  172  A    between atoms: _440  and  _441
REMARK  173  A    between atoms: _441  and  _442
REMARK  174  A    between atoms: _442  and  _443
REMARK  175  A    between atoms: _443  and  _444
REMARK  176  A    between atoms: _448  and  _450
REMARK  177  A    between atoms: _450  and  _451
REMARK  178  A    between atoms: _450  and  _453
REMARK  179  A    between atoms: _453  and  _454
REMARK  180  A    between atoms: _460  and  _462
REMARK  181  A    between atoms: _462  and  _463
REMARK  182  A    between atoms: _465  and  _467
REMARK  183  A    between atoms: _467  and  _468
REMARK  184  A    between atoms: _467  and  _470
REMARK  185  A    between atoms: _470  and  _471
REMARK  186  A    between atoms: _473  and  _475
REMARK  187  A    between atoms: _475  and  _476
REMARK  188  A    between atoms: _475  and  _478
REMARK  189  A    between atoms: _478  and  _479
REMARK  190  A    between atoms: _479  and  _480
REMARK  191  A    between atoms: _480  and  _481
REMARK  192  A    between atoms: _481  and  _482
REMARK  193  A    between atoms: _486  and  _488
REMARK  194  A    between atoms: _488  and  _489
REMARK  195  A    between atoms: _488  and  _491
REMARK  196  A    between atoms: _491  and  _492
REMARK  197  A    between atoms: _497  and  _499
REMARK  198  A    between atoms: _499  and  _500
REMARK  199  A    between atoms: _499  and  _502
REMARK  200  A    between atoms: _502  and  _503
REMARK  201  A    between atoms: _503  and  _504
REMARK  202  A    between atoms: _504  and  _505
REMARK  203  A    between atoms: _514  and  _516
REMARK  204  A    between atoms: _516  and  _517
REMARK  205  A    between atoms: _516  and  _519
REMARK  206  A    between atoms: _519  and  _520
REMARK  207  A    between atoms: _520  and  _521
REMARK  208  A    between atoms: _526  and  _528
REMARK  209  A    between atoms: _528  and  _529
REMARK  210  A    between atoms: _528  and  _531
REMARK  211  A    between atoms: _531  and  _532
REMARK  212  A    between atoms: _532  and  _533
REMARK  213  A    between atoms: _538  and  _540
REMARK  214  A    between atoms: _540  and  _541
REMARK  215  A    between atoms: _540  and  _543
REMARK  216  A    between atoms: _543  and  _544
REMARK  217  A    between atoms: _544  and  _545
REMARK  218  A    between atoms: _547  and  _549
REMARK  219  A    between atoms: _549  and  _550
REMARK  220  A    between atoms: _549  and  _552
REMARK  221  A    between atoms: _552  and  _553
REMARK  222  A    between atoms: _555  and  _557
REMARK  223  A    between atoms: _557  and  _558
REMARK  224  A    between atoms: _557  and  _560
REMARK  225  A    between atoms: _560  and  _561
REMARK  226  A    between atoms: _566  and  _567
REMARK  227  A    between atoms: _569  and  _571
REMARK  228  A    between atoms: _571  and  _572
REMARK  229  A    between atoms: _571  and  _574
REMARK  230  A    between atoms: _574  and  _575
REMARK  231  A    between atoms: _585  and  _587
REMARK  232  A    between atoms: _587  and  _588
REMARK  233  A    between atoms: _587  and  _590
REMARK  234  A    between atoms: _590  and  _591
REMARK  235  A    between atoms: _594  and  _596
REMARK  236  A    between atoms: _596  and  _597
REMARK  237  A    between atoms: _600  and  _602
REMARK  238  A    between atoms: _602  and  _603
REMARK  239  A    between atoms: _602  and  _605
REMARK  240  A    between atoms: _605  and  _606
REMARK                            x       y       z     vdW  Elec       q    Type
REMARK                         _______ _______ _______ _____ _____    ______ ____
ROOT
ATOM      1  O   HOH     1     -19.323  15.411  -8.395  0.00  0.00    +0.000 OA
ENDROOT
TORSDOF 0
REMARK  Name = ../refined-set-2016/4ua8/4ua8_pocket.pdb
REMARK  240 active torsions:
REMARK  status: ('A' for Active; 'I' for Inactive)
REMARK    1  A    between atoms: _1  and  _3
REMARK    2  A    between atoms: _3  and  _4
REMARK    3  A    between atoms: _7  and  _8
REMARK    4  A    between atoms: _13  and  _15
REMARK    5  A    between atoms: _15  and  _16
REMARK    6  A    between atoms: _19  and  _21
REMARK    7  A    between atoms: _21  and  _22
REMARK    8  A    between atoms: _21  and  _24
REMARK    9  A    between atoms: _24  and  _25
REMARK   10  A    between atoms: _25  and  _26
REMARK   11  A    between atoms: _29  and  _31
REMARK   12  A    between atoms: _31  and  _32
REMARK   13  A    between atoms: _31  and  _34
REMARK   14  A    between atoms: _34  and  _35
REMARK   15  A    between atoms: _38  and  _40
REMARK   16  A    between atoms: _40  and  _41
REMARK   17  A    between atoms: _40  and  _43
REMARK   18  A    between atoms: _43  and  _44
REMARK   19  A    between atoms: _46  and  _48
REMARK   20  A    between atoms: _48  and  _49
REMARK   21  A    between atoms: _48  and  _51
REMARK   22  A    between atoms: _51  and  _52
REMARK   23  A    between atoms: _54  and  _56
REMARK   24  A    between atoms: _56  and  _57
REMARK   25  A    between atoms: _56  and  _59
REMARK   26  A    between atoms: _59  and  _60
REMARK   27  A    between atoms: _60  and  _61
REMARK   28  A    between atoms: _64  and  _66
REMARK   29  A    between atoms: _66  and  _67
REMARK   30  A    between atoms: _66  and  _69
REMARK   31  A    between atoms: _69  and  _70
REMARK   32  A    between atoms: _72  and  _74
REMARK   33  A    between atoms: _74  and  _75
REMARK   34  A    between atoms: _74  and  _77
REMARK   35  A    between atoms: _77  and  _78
REMARK   36  A    between atoms: _81  and  _83
REMARK   37  A    between atoms: _83  and  _84
REMARK   38  A    between atoms: _87  and  _89
REMARK   39  A    between atoms: _89  and  _90
REMARK   40  A    between atoms: _89  and  _92
REMARK   41  A    between atoms: _92  and  _93
REMARK   42  A    between atoms: _93  and  _94
REMARK   43  A    between atoms: _94  and  _95
REMARK   44  A    between atoms: _95  and  _96
REMARK   45  A    between atoms: _100  and  _102
REMARK   46  A    between atoms: _102  and  _103
REMARK   47  A    between atoms: _102  and  _105
REMARK   48  A    between atoms: _105  and  _106
REMARK   49  A    between atoms: _109  and  _111
REMARK   50  A    between atoms: _111  and  _112
REMARK   51  A    between atoms: _111  and  _114
REMARK   52  A    between atoms: _114  and  _115
REMARK   53  A    between atoms: _115  and  _116
REMARK   54  A    between atoms: _118  and  _120
REMARK   55  A    between atoms: _120  and  _121
REMARK   56  A    between atoms: _120  and  _123
REMARK   57  A    between atoms: _123  and  _124
REMARK   58  A    between atoms: _130  and  _132
REMARK   59  A    between atoms: _132  and  _133
REMARK   60  A    between atoms: _136  and  _138
REMARK   61  A    between atoms: _138  and  _139
REMARK   62  A    between atoms: _138  and  _141
REMARK   63  A    between atoms: _141  and  _142
REMARK   64  A    between atoms: _147  and  _149
REMARK   65  A    between atoms: _149  and  _150
REMARK   66  A    between atoms: _149  and  _152
REMARK   67  A    between atoms: _152  and  _153
REMARK   68  A    between atoms: _156  and  _158
REMARK   69  A    between atoms: _158  and  _159
REMARK   70  A    between atoms: _158  and  _161
REMARK   71  A    between atoms: _161  and  _162
REMARK   72  A    between atoms: _162  and  _163
REMARK   73  A    between atoms: _168  and  _170
REMARK   74  A    between atoms: _170  and  _171
REMARK   75  A    between atoms: _170  and  _173
REMARK   76  A    between atoms: _173  and  _174
REMARK   77  A    between atoms: _178  and  _179
REMARK   78  A    between atoms: _184  and  _186
REMARK   79  A    between atoms: _186  and  _187
REMARK   80  A    between atoms: _186  and  _189
REMARK   81  A    between atoms: _189  and  _190
REMARK   82  A    between atoms: _195  and  _196
REMARK   83  A    between atoms: _198  and  _200
REMARK   84  A    between atoms: _200  and  _201
REMARK   85  A    between atoms: _200  and  _203
REMARK   86  A    between atoms: _203  and  _204
REMARK   87  A    between atoms: _207  and  _209
REMARK   88  A    between atoms: _209  and  _210
REMARK   89  A    between atoms: _209  and  _212
REMARK   90  A    between atoms: _212  and  _213
REMARK   91  A    between atoms: _215  and  _217
REMARK   92  A    between atoms: _217  and  _218
REMARK   93  A    between atoms: _217  and  _220
REMARK   94  A    between atoms: _220  and  _221
REMARK   95  A    between atoms: _226  and  _228
REMARK   96  A    between atoms: _228  and  _229
REMARK   97  A    between atoms: _228  and  _231
REMARK   98  A    between atoms: _231  and  _232
REMARK   99  A    between atoms: _235  and  _237
REMARK  100  A    between atoms: _237  and  _238
REMARK  101  A    between atoms: _237  and  _240
REMARK  102  A    between atoms: _240  and  _241
REMARK  103  A    between atoms: _252  and  _253
REMARK  104  A    between atoms: _258  and  _260
REMARK  105  A    between atoms: _260  and  _261
REMARK  106  A    between atoms: _260  and  _263
REMARK  107  A    between atoms: _263  and  _264
REMARK  108  A    between atoms: _267  and  _269
REMARK  109  A    between atoms: _269  and  _270
REMARK  110  A    between atoms: _269  and  _272
REMARK  111  A    between atoms: _272  and  _273
REMARK  112  A    between atoms: _278  and  _280
REMARK  113  A    between atoms: _280  and  _281
REMARK  114  A    between atoms: _283  and  _285
REMARK  115  A    between atoms: _285  and  _286
REMARK  116  A    between atoms: _285  and  _288
REMARK  117  A    between atoms: _288  and  _289
REMARK  118  A    between atoms: _299  and  _301
REMARK  119  A    between atoms: _301  and  _302
REMARK  120  A    between atoms: _301  and  _304
REMARK  121  A    between atoms: _304  and  _305
REMARK  122  A    between atoms: _310  and  _311
REMARK  123  A    between atoms: _313  and  _315
REMARK  124  A    between atoms: _315  and  _316
REMARK  125  A    between atoms: _315  and  _318
REMARK  126  A    between atoms: _318  and  _319
REMARK  127  A    between atoms: _322  and  _324
REMARK  128  A    between atoms: _324  and  _325
REMARK  129  A    between atoms: _324  and  _327
REMARK  130  A    between atoms: _327  and  _328
REMARK  131  A    between atoms: _333  and  _335
REMARK  132  A    between atoms: _335  and  _336
REMARK  133  A    between atoms: _335  and  _338
REMARK  134  A    between atoms: _338  and  _339
REMARK  135  A    between atoms: _344  and  _346
REMARK  136  A    between atoms: _346  and  _347
REMARK  137  A    between atoms: _346  and  _349
REMARK  138  A    between atoms: _349  and  _350
REMARK  139  A    between atoms: _350  and  _351
REMARK  140  A    between atoms: _354  and  _356
REMARK  141  A    between atoms: _356  and  _357
REMARK  142  A    between atoms: _359  and  _361
REMARK  143  A    between atoms: _361  and  _362
REMARK  144  A    between atoms: _361  and  _364
REMARK  145  A    between atoms: _364  and  _365
REMARK  146  A    between atoms: _367  and  _369
REMARK  147  A    between atoms: _369  and  _370
REMARK  148  A    between atoms: _369  and  _372
REMARK  149  A    between atoms: _372  and  _373
REMARK  150  A    between atoms: _378  and  _379
REMARK  151  A    between atoms: _381  and  _383
REMARK  152  A    between atoms: _383  and  _384
REMARK  153  A    between atoms: _383  and  _386
REMARK  154  A    between atoms: _386  and  _387
REMARK  155  A    between atoms: _392  and  _394
REMARK  156  A    between atoms: _394  and  _395
REMARK  157  A    between atoms: _397  and  _399
REMARK  158  A    between atoms: _399  and  _400
REMARK  159  A    between atoms: _399  and  _402
REMARK  160  A    between atoms: _402  and  _403
REMARK  161  A    between atoms: _408  and  _410
REMARK  162  A    between atoms: _410  and  _411
REMARK  163  A    between atoms: _410  and  _413
REMARK  164  A    between atoms: _413  and  _414
REMARK  165  A    between atoms: _424  and  _426
REMARK  166  A    between atoms: _426  and  _427
REMARK  167  A    between atoms: _426  and  _429
REMARK  168  A    between atoms: _429  and  _430
REMARK  169  A    between atoms: _435  and  _437
REMARK  170  A    between atoms: _437  and  _438
REMARK  171  A    between atoms: _437  and  _440
REMARK  172  A    between atoms: _440  and  _441
REMARK  173  A    between atoms: _441  and  _442
REMARK  174  A    between atoms: _442  and  _443
REMARK  175  A    between atoms: _443  and  _444
REMARK  176  A    between atoms: _448  and  _450
REMARK  177  A    between atoms: _450  and  _451
REMARK  178  A    between atoms: _450  and  _453
REMARK  179  A    between atoms: _453  and  _454
REMARK  180  A    between atoms: _460  and  _462
REMARK  181  A    between atoms: _462  and  _463
REMARK  182  A    between atoms: _465  and  _467
REMARK  183  A    between atoms: _467  and  _468
REMARK  184  A    between atoms: _467  and  _470
REMARK  185  A    between atoms: _470  and  _471
REMARK  186  A    between atoms: _473  and  _475
REMARK  187  A    between atoms: _475  and  _476
REMARK  188  A    between atoms: _475  and  _478
REMARK  189  A    between atoms: _478  and  _479
REMARK  190  A    between atoms: _479  and  _480
REMARK  191  A    between atoms: _480  and  _481
REMARK  192  A    between atoms: _481  and  _482
REMARK  193  A    between atoms: _486  and  _488
REMARK  194  A    between atoms: _488  and  _489
REMARK  195  A    between atoms: _488  and  _491
REMARK  196  A    between atoms: _491  and  _492
REMARK  197  A    between atoms: _497  and  _499
REMARK  198  A    between atoms: _499  and  _500
REMARK  199  A    between atoms: _499  and  _502
REMARK  200  A    between atoms: _502  and  _503
REMARK  201  A    between atoms: _503  and  _504
REMARK  202  A    between atoms: _504  and  _505
REMARK  203  A    between atoms: _514  and  _516
REMARK  204  A    between atoms: _516  and  _517
REMARK  205  A    between atoms: _516  and  _519
REMARK  206  A    between atoms: _519  and  _520
REMARK  207  A    between atoms: _520  and  _521
REMARK  208  A    between atoms: _526  and  _528
REMARK  209  A    between atoms: _528  and  _529
REMARK  210  A    between atoms: _528  and  _531
REMARK  211  A    between atoms: _531  and  _532
REMARK  212  A    between atoms: _532  and  _533
REMARK  213  A    between atoms: _538  and  _540
REMARK  214  A    between atoms: _540  and  _541
REMARK  215  A    between atoms: _540  and  _543
REMARK  216  A    between atoms: _543  and  _544
REMARK  217  A    between atoms: _544  and  _545
REMARK  218  A    between atoms: _547  and  _549
REMARK  219  A    between atoms: _549  and  _550
REMARK  220  A    between atoms: _549  and  _552
REMARK  221  A    between atoms: _552  and  _553
REMARK  222  A    between atoms: _555  and  _557
REMARK  223  A    between atoms: _557  and  _558
REMARK  224  A    between atoms: _557  and  _560
REMARK  225  A    between atoms: _560  and  _561
REMARK  226  A    between atoms: _566  and  _567
REMARK  227  A    between atoms: _569  and  _571
REMARK  228  A    between atoms: _571  and  _572
REMARK  229  A    between atoms: _571  and  _574
REMARK  230  A    between atoms: _574  and  _575
REMARK  231  A    between atoms: _585  and  _587
REMARK  232  A    between atoms: _587  and  _588
REMARK  233  A    between atoms: _587  and  _590
REMARK  234  A    between atoms: _590  and  _591
REMARK  235  A    between atoms: _594  and  _596
REMARK  236  A    between atoms: _596  and  _597
REMARK  237  A    between atoms: _600  and  _602
REMARK  238  A    between atoms: _602  and  _603
REMARK  239  A    between atoms: _602  and  _605
REMARK  240  A    between atoms: _605  and  _606
REMARK                            x       y       z     vdW  Elec       q    Type
REMARK                         _______ _______ _______ _____ _____    ______ ____
ROOT
ATOM      1  O   HOH     1     -36.334   5.023  -6.593  0.00  0.00    +0.000 OA
ENDROOT
TORSDOF 0
REMARK  Name = ../refined-set-2016/4ua8/4ua8_pocket.pdb
REMARK  240 active torsions:
REMARK  status: ('A' for Active; 'I' for Inactive)
REMARK    1  A    between atoms: _1  and  _3
REMARK    2  A    between atoms: _3  and  _4
REMARK    3  A    between atoms: _7  and  _8
REMARK    4  A    between atoms: _13  and  _15
REMARK    5  A    between atoms: _15  and  _16
REMARK    6  A    between atoms: _19  and  _21
REMARK    7  A    between atoms: _21  and  _22
REMARK    8  A    between atoms: _21  and  _24
REMARK    9  A    between atoms: _24  and  _25
REMARK   10  A    between atoms: _25  and  _26
REMARK   11  A    between atoms: _29  and  _31
REMARK   12  A    between atoms: _31  and  _32
REMARK   13  A    between atoms: _31  and  _34
REMARK   14  A    between atoms: _34  and  _35
REMARK   15  A    between atoms: _38  and  _40
REMARK   16  A    between atoms: _40  and  _41
REMARK   17  A    between atoms: _40  and  _43
REMARK   18  A    between atoms: _43  and  _44
REMARK   19  A    between atoms: _46  and  _48
REMARK   20  A    between atoms: _48  and  _49
REMARK   21  A    between atoms: _48  and  _51
REMARK   22  A    between atoms: _51  and  _52
REMARK   23  A    between atoms: _54  and  _56
REMARK   24  A    between atoms: _56  and  _57
REMARK   25  A    between atoms: _56  and  _59
REMARK   26  A    between atoms: _59  and  _60
REMARK   27  A    between atoms: _60  and  _61
REMARK   28  A    between atoms: _64  and  _66
REMARK   29  A    between atoms: _66  and  _67
REMARK   30  A    between atoms: _66  and  _69
REMARK   31  A    between atoms: _69  and  _70
REMARK   32  A    between atoms: _72  and  _74
REMARK   33  A    between atoms: _74  and  _75
REMARK   34  A    between atoms: _74  and  _77
REMARK   35  A    between atoms: _77  and  _78
REMARK   36  A    between atoms: _81  and  _83
REMARK   37  A    between atoms: _83  and  _84
REMARK   38  A    between atoms: _87  and  _89
REMARK   39  A    between atoms: _89  and  _90
REMARK   40  A    between atoms: _89  and  _92
REMARK   41  A    between atoms: _92  and  _93
REMARK   42  A    between atoms: _93  and  _94
REMARK   43  A    between atoms: _94  and  _95
REMARK   44  A    between atoms: _95  and  _96
REMARK   45  A    between atoms: _100  and  _102
REMARK   46  A    between atoms: _102  and  _103
REMARK   47  A    between atoms: _102  and  _105
REMARK   48  A    between atoms: _105  and  _106
REMARK   49  A    between atoms: _109  and  _111
REMARK   50  A    between atoms: _111  and  _112
REMARK   51  A    between atoms: _111  and  _114
REMARK   52  A    between atoms: _114  and  _115
REMARK   53  A    between atoms: _115  and  _116
REMARK   54  A    between atoms: _118  and  _120
REMARK   55  A    between atoms: _120  and  _121
REMARK   56  A    between atoms: _120  and  _123
REMARK   57  A    between atoms: _123  and  _124
REMARK   58  A    between atoms: _130  and  _132
REMARK   59  A    between atoms: _132  and  _133
REMARK   60  A    between atoms: _136  and  _138
REMARK   61  A    between atoms: _138  and  _139
REMARK   62  A    between atoms: _138  and  _141
REMARK   63  A    between atoms: _141  and  _142
REMARK   64  A    between atoms: _147  and  _149
REMARK   65  A    between atoms: _149  and  _150
REMARK   66  A    between atoms: _149  and  _152
REMARK   67  A    between atoms: _152  and  _153
REMARK   68  A    between atoms: _156  and  _158
REMARK   69  A    between atoms: _158  and  _159
REMARK   70  A    between atoms: _158  and  _161
REMARK   71  A    between atoms: _161  and  _162
REMARK   72  A    between atoms: _162  and  _163
REMARK   73  A    between atoms: _168  and  _170
REMARK   74  A    between atoms: _170  and  _171
REMARK   75  A    between atoms: _170  and  _173
REMARK   76  A    between atoms: _173  and  _174
REMARK   77  A    between atoms: _178  and  _179
REMARK   78  A    between atoms: _184  and  _186
REMARK   79  A    between atoms: _186  and  _187
REMARK   80  A    between atoms: _186  and  _189
REMARK   81  A    between atoms: _189  and  _190
REMARK   82  A    between atoms: _195  and  _196
REMARK   83  A    between atoms: _198  and  _200
REMARK   84  A    between atoms: _200  and  _201
REMARK   85  A    between atoms: _200  and  _203
REMARK   86  A    between atoms: _203  and  _204
REMARK   87  A    between atoms: _207  and  _209
REMARK   88  A    between atoms: _209  and  _210
REMARK   89  A    between atoms: _209  and  _212
REMARK   90  A    between atoms: _212  and  _213
REMARK   91  A    between atoms: _215  and  _217
REMARK   92  A    between atoms: _217  and  _218
REMARK   93  A    between atoms: _217  and  _220
REMARK   94  A    between atoms: _220  and  _221
REMARK   95  A    between atoms: _226  and  _228
REMARK   96  A    between atoms: _228  and  _229
REMARK   97  A    between atoms: _228  and  _231
REMARK   98  A    between atoms: _231  and  _232
REMARK   99  A    between atoms: _235  and  _237
REMARK  100  A    between atoms: _237  and  _238
REMARK  101  A    between atoms: _237  and  _240
REMARK  102  A    between atoms: _240  and  _241
REMARK  103  A    between atoms: _252  and  _253
REMARK  104  A    between atoms: _258  and  _260
REMARK  105  A    between atoms: _260  and  _261
REMARK  106  A    between atoms: _260  and  _263
REMARK  107  A    between atoms: _263  and  _264
REMARK  108  A    between atoms: _267  and  _269
REMARK  109  A    between atoms: _269  and  _270
REMARK  110  A    between atoms: _269  and  _272
REMARK  111  A    between atoms: _272  and  _273
REMARK  112  A    between atoms: _278  and  _280
REMARK  113  A    between atoms: _280  and  _281
REMARK  114  A    between atoms: _283  and  _285
REMARK  115  A    between atoms: _285  and  _286
REMARK  116  A    between atoms: _285  and  _288
REMARK  117  A    between atoms: _288  and  _289
REMARK  118  A    between atoms: _299  and  _301
REMARK  119  A    between atoms: _301  and  _302
REMARK  120  A    between atoms: _301  and  _304
REMARK  121  A    between atoms: _304  and  _305
REMARK  122  A    between atoms: _310  and  _311
REMARK  123  A    between atoms: _313  and  _315
REMARK  124  A    between atoms: _315  and  _316
REMARK  125  A    between atoms: _315  and  _318
REMARK  126  A    between atoms: _318  and  _319
REMARK  127  A    between atoms: _322  and  _324
REMARK  128  A    between atoms: _324  and  _325
REMARK  129  A    between atoms: _324  and  _327
REMARK  130  A    between atoms: _327  and  _328
REMARK  131  A    between atoms: _333  and  _335
REMARK  132  A    between atoms: _335  and  _336
REMARK  133  A    between atoms: _335  and  _338
REMARK  134  A    between atoms: _338  and  _339
REMARK  135  A    between atoms: _344  and  _346
REMARK  136  A    between atoms: _346  and  _347
REMARK  137  A    between atoms: _346  and  _349
REMARK  138  A    between atoms: _349  and  _350
REMARK  139  A    between atoms: _350  and  _351
REMARK  140  A    between atoms: _354  and  _356
REMARK  141  A    between atoms: _356  and  _357
REMARK  142  A    between atoms: _359  and  _361
REMARK  143  A    between atoms: _361  and  _362
REMARK  144  A    between atoms: _361  and  _364
REMARK  145  A    between atoms: _364  and  _365
REMARK  146  A    between atoms: _367  and  _369
REMARK  147  A    between atoms: _369  and  _370
REMARK  148  A    between atoms: _369  and  _372
REMARK  149  A    between atoms: _372  and  _373
REMARK  150  A    between atoms: _378  and  _379
REMARK  151  A    between atoms: _381  and  _383
REMARK  152  A    between atoms: _383  and  _384
REMARK  153  A    between atoms: _383  and  _386
REMARK  154  A    between atoms: _386  and  _387
REMARK  155  A    between atoms: _392  and  _394
REMARK  156  A    between atoms: _394  and  _395
REMARK  157  A    between atoms: _397  and  _399
REMARK  158  A    between atoms: _399  and  _400
REMARK  159  A    between atoms: _399  and  _402
REMARK  160  A    between atoms: _402  and  _403
REMARK  161  A    between atoms: _408  and  _410
REMARK  162  A    between atoms: _410  and  _411
REMARK  163  A    between atoms: _410  and  _413
REMARK  164  A    between atoms: _413  and  _414
REMARK  165  A    between atoms: _424  and  _426
REMARK  166  A    between atoms: _426  and  _427
REMARK  167  A    between atoms: _426  and  _429
REMARK  168  A    between atoms: _429  and  _430
REMARK  169  A    between atoms: _435  and  _437
REMARK  170  A    between atoms: _437  and  _438
REMARK  171  A    between atoms: _437  and  _440
REMARK  172  A    between atoms: _440  and  _441
REMARK  173  A    between atoms: _441  and  _442
REMARK  174  A    between atoms: _442  and  _443
REMARK  175  A    between atoms: _443  and  _444
REMARK  176  A    between atoms: _448  and  _450
REMARK  177  A    between atoms: _450  and  _451
REMARK  178  A    between atoms: _450  and  _453
REMARK  179  A    between atoms: _453  and  _454
REMARK  180  A    between atoms: _460  and  _462
REMARK  181  A    between atoms: _462  and  _463
REMARK  182  A    between atoms: _465  and  _467
REMARK  183  A    between atoms: _467  and  _468
REMARK  184  A    between atoms: _467  and  _470
REMARK  185  A    between atoms: _470  and  _471
REMARK  186  A    between atoms: _473  and  _475
REMARK  187  A    between atoms: _475  and  _476
REMARK  188  A    between atoms: _475  and  _478
REMARK  189  A    between atoms: _478  and  _479
REMARK  190  A    between atoms: _479  and  _480
REMARK  191  A    between atoms: _480  and  _481
REMARK  192  A    between atoms: _481  and  _482
REMARK  193  A    between atoms: _486  and  _488
REMARK  194  A    between atoms: _488  and  _489
REMARK  195  A    between atoms: _488  and  _491
REMARK  196  A    between atoms: _491  and  _492
REMARK  197  A    between atoms: _497  and  _499
REMARK  198  A    between atoms: _499  and  _500
REMARK  199  A    between atoms: _499  and  _502
REMARK  200  A    between atoms: _502  and  _503
REMARK  201  A    between atoms: _503  and  _504
REMARK  202  A    between atoms: _504  and  _505
REMARK  203  A    between atoms: _514  and  _516
REMARK  204  A    between atoms: _516  and  _517
REMARK  205  A    between atoms: _516  and  _519
REMARK  206  A    between atoms: _519  and  _520
REMARK  207  A    between atoms: _520  and  _521
REMARK  208  A    between atoms: _526  and  _528
REMARK  209  A    between atoms: _528  and  _529
REMARK  210  A    between atoms: _528  and  _531
REMARK  211  A    between atoms: _531  and  _532
REMARK  212  A    between atoms: _532  and  _533
REMARK  213  A    between atoms: _538  and  _540
REMARK  214  A    between atoms: _540  and  _541
REMARK  215  A    between atoms: _540  and  _543
REMARK  216  A    between atoms: _543  and  _544
REMARK  217  A    between atoms: _544  and  _545
REMARK  218  A    between atoms: _547  and  _549
REMARK  219  A    between atoms: _549  and  _550
REMARK  220  A    between atoms: _549  and  _552
REMARK  221  A    between atoms: _552  and  _553
REMARK  222  A    between atoms: _555  and  _557
REMARK  223  A    between atoms: _557  and  _558
REMARK  224  A    between atoms: _557  and  _560
REMARK  225  A    between atoms: _560  and  _561
REMARK  226  A    between atoms: _566  and  _567
REMARK  227  A    between atoms: _569  and  _571
REMARK  228  A    between atoms: _571  and  _572
REMARK  229  A    between atoms: _571  and  _574
REMARK  230  A    between atoms: _574  and  _575
REMARK  231  A    between atoms: _585  and  _587
REMARK  232  A    between atoms: _587  and  _588
REMARK  233  A    between atoms: _587  and  _590
REMARK  234  A    between atoms: _590  and  _591
REMARK  235  A    between atoms: _594  and  _596
REMARK  236  A    between atoms: _596  and  _597
REMARK  237  A    between atoms: _600  and  _602
REMARK  238  A    between atoms: _602  and  _603
REMARK  239  A    between atoms: _602  and  _605
REMARK  240  A    between atoms: _605  and  _606
REMARK                            x       y       z     vdW  Elec       q    Type
REMARK                         _______ _______ _______ _____ _____    ______ ____
ROOT
ATOM      1  O   HOH     1     -35.961  10.781   0.252  0.00  0.00    +0.000 OA
ENDROOT
TORSDOF 0
REMARK  Name = ../refined-set-2016/4ua8/4ua8_pocket.pdb
REMARK  240 active torsions:
REMARK  status: ('A' for Active; 'I' for Inactive)
REMARK    1  A    between atoms: _1  and  _3
REMARK    2  A    between atoms: _3  and  _4
REMARK    3  A    between atoms: _7  and  _8
REMARK    4  A    between atoms: _13  and  _15
REMARK    5  A    between atoms: _15  and  _16
REMARK    6  A    between atoms: _19  and  _21
REMARK    7  A    between atoms: _21  and  _22
REMARK    8  A    between atoms: _21  and  _24
REMARK    9  A    between atoms: _24  and  _25
REMARK   10  A    between atoms: _25  and  _26
REMARK   11  A    between atoms: _29  and  _31
REMARK   12  A    between atoms: _31  and  _32
REMARK   13  A    between atoms: _31  and  _34
REMARK   14  A    between atoms: _34  and  _35
REMARK   15  A    between atoms: _38  and  _40
REMARK   16  A    between atoms: _40  and  _41
REMARK   17  A    between atoms: _40  and  _43
REMARK   18  A    between atoms: _43  and  _44
REMARK   19  A    between atoms: _46  and  _48
REMARK   20  A    between atoms: _48  and  _49
REMARK   21  A    between atoms: _48  and  _51
REMARK   22  A    between atoms: _51  and  _52
REMARK   23  A    between atoms: _54  and  _56
REMARK   24  A    between atoms: _56  and  _57
REMARK   25  A    between atoms: _56  and  _59
REMARK   26  A    between atoms: _59  and  _60
REMARK   27  A    between atoms: _60  and  _61
REMARK   28  A    between atoms: _64  and  _66
REMARK   29  A    between atoms: _66  and  _67
REMARK   30  A    between atoms: _66  and  _69
REMARK   31  A    between atoms: _69  and  _70
REMARK   32  A    between atoms: _72  and  _74
REMARK   33  A    between atoms: _74  and  _75
REMARK   34  A    between atoms: _74  and  _77
REMARK   35  A    between atoms: _77  and  _78
REMARK   36  A    between atoms: _81  and  _83
REMARK   37  A    between atoms: _83  and  _84
REMARK   38  A    between atoms: _87  and  _89
REMARK   39  A    between atoms: _89  and  _90
REMARK   40  A    between atoms: _89  and  _92
REMARK   41  A    between atoms: _92  and  _93
REMARK   42  A    between atoms: _93  and  _94
REMARK   43  A    between atoms: _94  and  _95
REMARK   44  A    between atoms: _95  and  _96
REMARK   45  A    between atoms: _100  and  _102
REMARK   46  A    between atoms: _102  and  _103
REMARK   47  A    between atoms: _102  and  _105
REMARK   48  A    between atoms: _105  and  _106
REMARK   49  A    between atoms: _109  and  _111
REMARK   50  A    between atoms: _111  and  _112
REMARK   51  A    between atoms: _111  and  _114
REMARK   52  A    between atoms: _114  and  _115
REMARK   53  A    between atoms: _115  and  _116
REMARK   54  A    between atoms: _118  and  _120
REMARK   55  A    between atoms: _120  and  _121
REMARK   56  A    between atoms: _120  and  _123
REMARK   57  A    between atoms: _123  and  _124
REMARK   58  A    between atoms: _130  and  _132
REMARK   59  A    between atoms: _132  and  _133
REMARK   60  A    between atoms: _136  and  _138
REMARK   61  A    between atoms: _138  and  _139
REMARK   62  A    between atoms: _138  and  _141
REMARK   63  A    between atoms: _141  and  _142
REMARK   64  A    between atoms: _147  and  _149
REMARK   65  A    between atoms: _149  and  _150
REMARK   66  A    between atoms: _149  and  _152
REMARK   67  A    between atoms: _152  and  _153
REMARK   68  A    between atoms: _156  and  _158
REMARK   69  A    between atoms: _158  and  _159
REMARK   70  A    between atoms: _158  and  _161
REMARK   71  A    between atoms: _161  and  _162
REMARK   72  A    between atoms: _162  and  _163
REMARK   73  A    between atoms: _168  and  _170
REMARK   74  A    between atoms: _170  and  _171
REMARK   75  A    between atoms: _170  and  _173
REMARK   76  A    between atoms: _173  and  _174
REMARK   77  A    between atoms: _178  and  _179
REMARK   78  A    between atoms: _184  and  _186
REMARK   79  A    between atoms: _186  and  _187
REMARK   80  A    between atoms: _186  and  _189
REMARK   81  A    between atoms: _189  and  _190
REMARK   82  A    between atoms: _195  and  _196
REMARK   83  A    between atoms: _198  and  _200
REMARK   84  A    between atoms: _200  and  _201
REMARK   85  A    between atoms: _200  and  _203
REMARK   86  A    between atoms: _203  and  _204
REMARK   87  A    between atoms: _207  and  _209
REMARK   88  A    between atoms: _209  and  _210
REMARK   89  A    between atoms: _209  and  _212
REMARK   90  A    between atoms: _212  and  _213
REMARK   91  A    between atoms: _215  and  _217
REMARK   92  A    between atoms: _217  and  _218
REMARK   93  A    between atoms: _217  and  _220
REMARK   94  A    between atoms: _220  and  _221
REMARK   95  A    between atoms: _226  and  _228
REMARK   96  A    between atoms: _228  and  _229
REMARK   97  A    between atoms: _228  and  _231
REMARK   98  A    between atoms: _231  and  _232
REMARK   99  A    between atoms: _235  and  _237
REMARK  100  A    between atoms: _237  and  _238
REMARK  101  A    between atoms: _237  and  _240
REMARK  102  A    between atoms: _240  and  _241
REMARK  103  A    between atoms: _252  and  _253
REMARK  104  A    between atoms: _258  and  _260
REMARK  105  A    between atoms: _260  and  _261
REMARK  106  A    between atoms: _260  and  _263
REMARK  107  A    between atoms: _263  and  _264
REMARK  108  A    between atoms: _267  and  _269
REMARK  109  A    between atoms: _269  and  _270
REMARK  110  A    between atoms: _269  and  _272
REMARK  111  A    between atoms: _272  and  _273
REMARK  112  A    between atoms: _278  and  _280
REMARK  113  A    between atoms: _280  and  _281
REMARK  114  A    between atoms: _283  and  _285
REMARK  115  A    between atoms: _285  and  _286
REMARK  116  A    between atoms: _285  and  _288
REMARK  117  A    between atoms: _288  and  _289
REMARK  118  A    between atoms: _299  and  _301
REMARK  119  A    between atoms: _301  and  _302
REMARK  120  A    between atoms: _301  and  _304
REMARK  121  A    between atoms: _304  and  _305
REMARK  122  A    between atoms: _310  and  _311
REMARK  123  A    between atoms: _313  and  _315
REMARK  124  A    between atoms: _315  and  _316
REMARK  125  A    between atoms: _315  and  _318
REMARK  126  A    between atoms: _318  and  _319
REMARK  127  A    between atoms: _322  and  _324
REMARK  128  A    between atoms: _324  and  _325
REMARK  129  A    between atoms: _324  and  _327
REMARK  130  A    between atoms: _327  and  _328
REMARK  131  A    between atoms: _333  and  _335
REMARK  132  A    between atoms: _335  and  _336
REMARK  133  A    between atoms: _335  and  _338
REMARK  134  A    between atoms: _338  and  _339
REMARK  135  A    between atoms: _344  and  _346
REMARK  136  A    between atoms: _346  and  _347
REMARK  137  A    between atoms: _346  and  _349
REMARK  138  A    between atoms: _349  and  _350
REMARK  139  A    between atoms: _350  and  _351
REMARK  140  A    between atoms: _354  and  _356
REMARK  141  A    between atoms: _356  and  _357
REMARK  142  A    between atoms: _359  and  _361
REMARK  143  A    between atoms: _361  and  _362
REMARK  144  A    between atoms: _361  and  _364
REMARK  145  A    between atoms: _364  and  _365
REMARK  146  A    between atoms: _367  and  _369
REMARK  147  A    between atoms: _369  and  _370
REMARK  148  A    between atoms: _369  and  _372
REMARK  149  A    between atoms: _372  and  _373
REMARK  150  A    between atoms: _378  and  _379
REMARK  151  A    between atoms: _381  and  _383
REMARK  152  A    between atoms: _383  and  _384
REMARK  153  A    between atoms: _383  and  _386
REMARK  154  A    between atoms: _386  and  _387
REMARK  155  A    between atoms: _392  and  _394
REMARK  156  A    between atoms: _394  and  _395
REMARK  157  A    between atoms: _397  and  _399
REMARK  158  A    between atoms: _399  and  _400
REMARK  159  A    between atoms: _399  and  _402
REMARK  160  A    between atoms: _402  and  _403
REMARK  161  A    between atoms: _408  and  _410
REMARK  162  A    between atoms: _410  and  _411
REMARK  163  A    between atoms: _410  and  _413
REMARK  164  A    between atoms: _413  and  _414
REMARK  165  A    between atoms: _424  and  _426
REMARK  166  A    between atoms: _426  and  _427
REMARK  167  A    between atoms: _426  and  _429
REMARK  168  A    between atoms: _429  and  _430
REMARK  169  A    between atoms: _435  and  _437
REMARK  170  A    between atoms: _437  and  _438
REMARK  171  A    between atoms: _437  and  _440
REMARK  172  A    between atoms: _440  and  _441
REMARK  173  A    between atoms: _441  and  _442
REMARK  174  A    between atoms: _442  and  _443
REMARK  175  A    between atoms: _443  and  _444
REMARK  176  A    between atoms: _448  and  _450
REMARK  177  A    between atoms: _450  and  _451
REMARK  178  A    between atoms: _450  and  _453
REMARK  179  A    between atoms: _453  and  _454
REMARK  180  A    between atoms: _460  and  _462
REMARK  181  A    between atoms: _462  and  _463
REMARK  182  A    between atoms: _465  and  _467
REMARK  183  A    between atoms: _467  and  _468
REMARK  184  A    between atoms: _467  and  _470
REMARK  185  A    between atoms: _470  and  _471
REMARK  186  A    between atoms: _473  and  _475
REMARK  187  A    between atoms: _475  and  _476
REMARK  188  A    between atoms: _475  and  _478
REMARK  189  A    between atoms: _478  and  _479
REMARK  190  A    between atoms: _479  and  _480
REMARK  191  A    between atoms: _480  and  _481
REMARK  192  A    between atoms: _481  and  _482
REMARK  193  A    between atoms: _486  and  _488
REMARK  194  A    between atoms: _488  and  _489
REMARK  195  A    between atoms: _488  and  _491
REMARK  196  A    between atoms: _491  and  _492
REMARK  197  A    between atoms: _497  and  _499
REMARK  198  A    between atoms: _499  and  _500
REMARK  199  A    between atoms: _499  and  _502
REMARK  200  A    between atoms: _502  and  _503
REMARK  201  A    between atoms: _503  and  _504
REMARK  202  A    between atoms: _504  and  _505
REMARK  203  A    between atoms: _514  and  _516
REMARK  204  A    between atoms: _516  and  _517
REMARK  205  A    between atoms: _516  and  _519
REMARK  206  A    between atoms: _519  and  _520
REMARK  207  A    between atoms: _520  and  _521
REMARK  208  A    between atoms: _526  and  _528
REMARK  209  A    between atoms: _528  and  _529
REMARK  210  A    between atoms: _528  and  _531
REMARK  211  A    between atoms: _531  and  _532
REMARK  212  A    between atoms: _532  and  _533
REMARK  213  A    between atoms: _538  and  _540
REMARK  214  A    between atoms: _540  and  _541
REMARK  215  A    between atoms: _540  and  _543
REMARK  216  A    between atoms: _543  and  _544
REMARK  217  A    between atoms: _544  and  _545
REMARK  218  A    between atoms: _547  and  _549
REMARK  219  A    between atoms: _549  and  _550
REMARK  220  A    between atoms: _549  and  _552
REMARK  221  A    between atoms: _552  and  _553
REMARK  222  A    between atoms: _555  and  _557
REMARK  223  A    between atoms: _557  and  _558
REMARK  224  A    between atoms: _557  and  _560
REMARK  225  A    between atoms: _560  and  _561
REMARK  226  A    between atoms: _566  and  _567
REMARK  227  A    between atoms: _569  and  _571
REMARK  228  A    between atoms: _571  and  _572
REMARK  229  A    between atoms: _571  and  _574
REMARK  230  A    between atoms: _574  and  _575
REMARK  231  A    between atoms: _585  and  _587
REMARK  232  A    between atoms: _587  and  _588
REMARK  233  A    between atoms: _587  and  _590
REMARK  234  A    between atoms: _590  and  _591
REMARK  235  A    between atoms: _594  and  _596
REMARK  236  A    between atoms: _596  and  _597
REMARK  237  A    between atoms: _600  and  _602
REMARK  238  A    between atoms: _602  and  _603
REMARK  239  A    between atoms: _602  and  _605
REMARK  240  A    between atoms: _605  and  _606
REMARK                            x       y       z     vdW  Elec       q    Type
REMARK                         _______ _______ _______ _____ _____    ______ ____
ROOT
ATOM      1  O   HOH     1     -33.130  10.947   2.059  0.00  0.00    +0.000 OA
ENDROOT
TORSDOF 0
REMARK  Name = ../refined-set-2016/4ua8/4ua8_pocket.pdb
REMARK  240 active torsions:
REMARK  status: ('A' for Active; 'I' for Inactive)
REMARK    1  A    between atoms: _1  and  _3
REMARK    2  A    between atoms: _3  and  _4
REMARK    3  A    between atoms: _7  and  _8
REMARK    4  A    between atoms: _13  and  _15
REMARK    5  A    between atoms: _15  and  _16
REMARK    6  A    between atoms: _19  and  _21
REMARK    7  A    between atoms: _21  and  _22
REMARK    8  A    between atoms: _21  and  _24
REMARK    9  A    between atoms: _24  and  _25
REMARK   10  A    between atoms: _25  and  _26
REMARK   11  A    between atoms: _29  and  _31
REMARK   12  A    between atoms: _31  and  _32
REMARK   13  A    between atoms: _31  and  _34
REMARK   14  A    between atoms: _34  and  _35
REMARK   15  A    between atoms: _38  and  _40
REMARK   16  A    between atoms: _40  and  _41
REMARK   17  A    between atoms: _40  and  _43
REMARK   18  A    between atoms: _43  and  _44
REMARK   19  A    between atoms: _46  and  _48
REMARK   20  A    between atoms: _48  and  _49
REMARK   21  A    between atoms: _48  and  _51
REMARK   22  A    between atoms: _51  and  _52
REMARK   23  A    between atoms: _54  and  _56
REMARK   24  A    between atoms: _56  and  _57
REMARK   25  A    between atoms: _56  and  _59
REMARK   26  A    between atoms: _59  and  _60
REMARK   27  A    between atoms: _60  and  _61
REMARK   28  A    between atoms: _64  and  _66
REMARK   29  A    between atoms: _66  and  _67
REMARK   30  A    between atoms: _66  and  _69
REMARK   31  A    between atoms: _69  and  _70
REMARK   32  A    between atoms: _72  and  _74
REMARK   33  A    between atoms: _74  and  _75
REMARK   34  A    between atoms: _74  and  _77
REMARK   35  A    between atoms: _77  and  _78
REMARK   36  A    between atoms: _81  and  _83
REMARK   37  A    between atoms: _83  and  _84
REMARK   38  A    between atoms: _87  and  _89
REMARK   39  A    between atoms: _89  and  _90
REMARK   40  A    between atoms: _89  and  _92
REMARK   41  A    between atoms: _92  and  _93
REMARK   42  A    between atoms: _93  and  _94
REMARK   43  A    between atoms: _94  and  _95
REMARK   44  A    between atoms: _95  and  _96
REMARK   45  A    between atoms: _100  and  _102
REMARK   46  A    between atoms: _102  and  _103
REMARK   47  A    between atoms: _102  and  _105
REMARK   48  A    between atoms: _105  and  _106
REMARK   49  A    between atoms: _109  and  _111
REMARK   50  A    between atoms: _111  and  _112
REMARK   51  A    between atoms: _111  and  _114
REMARK   52  A    between atoms: _114  and  _115
REMARK   53  A    between atoms: _115  and  _116
REMARK   54  A    between atoms: _118  and  _120
REMARK   55  A    between atoms: _120  and  _121
REMARK   56  A    between atoms: _120  and  _123
REMARK   57  A    between atoms: _123  and  _124
REMARK   58  A    between atoms: _130  and  _132
REMARK   59  A    between atoms: _132  and  _133
REMARK   60  A    between atoms: _136  and  _138
REMARK   61  A    between atoms: _138  and  _139
REMARK   62  A    between atoms: _138  and  _141
REMARK   63  A    between atoms: _141  and  _142
REMARK   64  A    between atoms: _147  and  _149
REMARK   65  A    between atoms: _149  and  _150
REMARK   66  A    between atoms: _149  and  _152
REMARK   67  A    between atoms: _152  and  _153
REMARK   68  A    between atoms: _156  and  _158
REMARK   69  A    between atoms: _158  and  _159
REMARK   70  A    between atoms: _158  and  _161
REMARK   71  A    between atoms: _161  and  _162
REMARK   72  A    between atoms: _162  and  _163
REMARK   73  A    between atoms: _168  and  _170
REMARK   74  A    between atoms: _170  and  _171
REMARK   75  A    between atoms: _170  and  _173
REMARK   76  A    between atoms: _173  and  _174
REMARK   77  A    between atoms: _178  and  _179
REMARK   78  A    between atoms: _184  and  _186
REMARK   79  A    between atoms: _186  and  _187
REMARK   80  A    between atoms: _186  and  _189
REMARK   81  A    between atoms: _189  and  _190
REMARK   82  A    between atoms: _195  and  _196
REMARK   83  A    between atoms: _198  and  _200
REMARK   84  A    between atoms: _200  and  _201
REMARK   85  A    between atoms: _200  and  _203
REMARK   86  A    between atoms: _203  and  _204
REMARK   87  A    between atoms: _207  and  _209
REMARK   88  A    between atoms: _209  and  _210
REMARK   89  A    between atoms: _209  and  _212
REMARK   90  A    between atoms: _212  and  _213
REMARK   91  A    between atoms: _215  and  _217
REMARK   92  A    between atoms: _217  and  _218
REMARK   93  A    between atoms: _217  and  _220
REMARK   94  A    between atoms: _220  and  _221
REMARK   95  A    between atoms: _226  and  _228
REMARK   96  A    between atoms: _228  and  _229
REMARK   97  A    between atoms: _228  and  _231
REMARK   98  A    between atoms: _231  and  _232
REMARK   99  A    between atoms: _235  and  _237
REMARK  100  A    between atoms: _237  and  _238
REMARK  101  A    between atoms: _237  and  _240
REMARK  102  A    between atoms: _240  and  _241
REMARK  103  A    between atoms: _252  and  _253
REMARK  104  A    between atoms: _258  and  _260
REMARK  105  A    between atoms: _260  and  _261
REMARK  106  A    between atoms: _260  and  _263
REMARK  107  A    between atoms: _263  and  _264
REMARK  108  A    between atoms: _267  and  _269
REMARK  109  A    between atoms: _269  and  _270
REMARK  110  A    between atoms: _269  and  _272
REMARK  111  A    between atoms: _272  and  _273
REMARK  112  A    between atoms: _278  and  _280
REMARK  113  A    between atoms: _280  and  _281
REMARK  114  A    between atoms: _283  and  _285
REMARK  115  A    between atoms: _285  and  _286
REMARK  116  A    between atoms: _285  and  _288
REMARK  117  A    between atoms: _288  and  _289
REMARK  118  A    between atoms: _299  and  _301
REMARK  119  A    between atoms: _301  and  _302
REMARK  120  A    between atoms: _301  and  _304
REMARK  121  A    between atoms: _304  and  _305
REMARK  122  A    between atoms: _310  and  _311
REMARK  123  A    between atoms: _313  and  _315
REMARK  124  A    between atoms: _315  and  _316
REMARK  125  A    between atoms: _315  and  _318
REMARK  126  A    between atoms: _318  and  _319
REMARK  127  A    between atoms: _322  and  _324
REMARK  128  A    between atoms: _324  and  _325
REMARK  129  A    between atoms: _324  and  _327
REMARK  130  A    between atoms: _327  and  _328
REMARK  131  A    between atoms: _333  and  _335
REMARK  132  A    between atoms: _335  and  _336
REMARK  133  A    between atoms: _335  and  _338
REMARK  134  A    between atoms: _338  and  _339
REMARK  135  A    between atoms: _344  and  _346
REMARK  136  A    between atoms: _346  and  _347
REMARK  137  A    between atoms: _346  and  _349
REMARK  138  A    between atoms: _349  and  _350
REMARK  139  A    between atoms: _350  and  _351
REMARK  140  A    between atoms: _354  and  _356
REMARK  141  A    between atoms: _356  and  _357
REMARK  142  A    between atoms: _359  and  _361
REMARK  143  A    between atoms: _361  and  _362
REMARK  144  A    between atoms: _361  and  _364
REMARK  145  A    between atoms: _364  and  _365
REMARK  146  A    between atoms: _367  and  _369
REMARK  147  A    between atoms: _369  and  _370
REMARK  148  A    between atoms: _369  and  _372
REMARK  149  A    between atoms: _372  and  _373
REMARK  150  A    between atoms: _378  and  _379
REMARK  151  A    between atoms: _381  and  _383
REMARK  152  A    between atoms: _383  and  _384
REMARK  153  A    between atoms: _383  and  _386
REMARK  154  A    between atoms: _386  and  _387
REMARK  155  A    between atoms: _392  and  _394
REMARK  156  A    between atoms: _394  and  _395
REMARK  157  A    between atoms: _397  and  _399
REMARK  158  A    between atoms: _399  and  _400
REMARK  159  A    between atoms: _399  and  _402
REMARK  160  A    between atoms: _402  and  _403
REMARK  161  A    between atoms: _408  and  _410
REMARK  162  A    between atoms: _410  and  _411
REMARK  163  A    between atoms: _410  and  _413
REMARK  164  A    between atoms: _413  and  _414
REMARK  165  A    between atoms: _424  and  _426
REMARK  166  A    between atoms: _426  and  _427
REMARK  167  A    between atoms: _426  and  _429
REMARK  168  A    between atoms: _429  and  _430
REMARK  169  A    between atoms: _435  and  _437
REMARK  170  A    between atoms: _437  and  _438
REMARK  171  A    between atoms: _437  and  _440
REMARK  172  A    between atoms: _440  and  _441
REMARK  173  A    between atoms: _441  and  _442
REMARK  174  A    between atoms: _442  and  _443
REMARK  175  A    between atoms: _443  and  _444
REMARK  176  A    between atoms: _448  and  _450
REMARK  177  A    between atoms: _450  and  _451
REMARK  178  A    between atoms: _450  and  _453
REMARK  179  A    between atoms: _453  and  _454
REMARK  180  A    between atoms: _460  and  _462
REMARK  181  A    between atoms: _462  and  _463
REMARK  182  A    between atoms: _465  and  _467
REMARK  183  A    between atoms: _467  and  _468
REMARK  184  A    between atoms: _467  and  _470
REMARK  185  A    between atoms: _470  and  _471
REMARK  186  A    between atoms: _473  and  _475
REMARK  187  A    between atoms: _475  and  _476
REMARK  188  A    between atoms: _475  and  _478
REMARK  189  A    between atoms: _478  and  _479
REMARK  190  A    between atoms: _479  and  _480
REMARK  191  A    between atoms: _480  and  _481
REMARK  192  A    between atoms: _481  and  _482
REMARK  193  A    between atoms: _486  and  _488
REMARK  194  A    between atoms: _488  and  _489
REMARK  195  A    between atoms: _488  and  _491
REMARK  196  A    between atoms: _491  and  _492
REMARK  197  A    between atoms: _497  and  _499
REMARK  198  A    between atoms: _499  and  _500
REMARK  199  A    between atoms: _499  and  _502
REMARK  200  A    between atoms: _502  and  _503
REMARK  201  A    between atoms: _503  and  _504
REMARK  202  A    between atoms: _504  and  _505
REMARK  203  A    between atoms: _514  and  _516
REMARK  204  A    between atoms: _516  and  _517
REMARK  205  A    between atoms: _516  and  _519
REMARK  206  A    between atoms: _519  and  _520
REMARK  207  A    between atoms: _520  and  _521
REMARK  208  A    between atoms: _526  and  _528
REMARK  209  A    between atoms: _528  and  _529
REMARK  210  A    between atoms: _528  and  _531
REMARK  211  A    between atoms: _531  and  _532
REMARK  212  A    between atoms: _532  and  _533
REMARK  213  A    between atoms: _538  and  _540
REMARK  214  A    between atoms: _540  and  _541
REMARK  215  A    between atoms: _540  and  _543
REMARK  216  A    between atoms: _543  and  _544
REMARK  217  A    between atoms: _544  and  _545
REMARK  218  A    between atoms: _547  and  _549
REMARK  219  A    between atoms: _549  and  _550
REMARK  220  A    between atoms: _549  and  _552
REMARK  221  A    between atoms: _552  and  _553
REMARK  222  A    between atoms: _555  and  _557
REMARK  223  A    between atoms: _557  and  _558
REMARK  224  A    between atoms: _557  and  _560
REMARK  225  A    between atoms: _560  and  _561
REMARK  226  A    between atoms: _566  and  _567
REMARK  227  A    between atoms: _569  and  _571
REMARK  228  A    between atoms: _571  and  _572
REMARK  229  A    between atoms: _571  and  _574
REMARK  230  A    between atoms: _574  and  _575
REMARK  231  A    between atoms: _585  and  _587
REMARK  232  A    between atoms: _587  and  _588
REMARK  233  A    between atoms: _587  and  _590
REMARK  234  A    between atoms: _590  and  _591
REMARK  235  A    between atoms: _594  and  _596
REMARK  236  A    between atoms: _596  and  _597
REMARK  237  A    between atoms: _600  and  _602
REMARK  238  A    between atoms: _602  and  _603
REMARK  239  A    between atoms: _602  and  _605
REMARK  240  A    between atoms: _605  and  _606
REMARK                            x       y       z     vdW  Elec       q    Type
REMARK                         _______ _______ _______ _____ _____    ______ ____
ROOT
ATOM      1  O   HOH     1     -35.665   0.155  -7.563  0.00  0.00    +0.000 OA
ENDROOT
TORSDOF 0
REMARK  Name = ../refined-set-2016/4ua8/4ua8_pocket.pdb
REMARK  240 active torsions:
REMARK  status: ('A' for Active; 'I' for Inactive)
REMARK    1  A    between atoms: _1  and  _3
REMARK    2  A    between atoms: _3  and  _4
REMARK    3  A    between atoms: _7  and  _8
REMARK    4  A    between atoms: _13  and  _15
REMARK    5  A    between atoms: _15  and  _16
REMARK    6  A    between atoms: _19  and  _21
REMARK    7  A    between atoms: _21  and  _22
REMARK    8  A    between atoms: _21  and  _24
REMARK    9  A    between atoms: _24  and  _25
REMARK   10  A    between atoms: _25  and  _26
REMARK   11  A    between atoms: _29  and  _31
REMARK   12  A    between atoms: _31  and  _32
REMARK   13  A    between atoms: _31  and  _34
REMARK   14  A    between atoms: _34  and  _35
REMARK   15  A    between atoms: _38  and  _40
REMARK   16  A    between atoms: _40  and  _41
REMARK   17  A    between atoms: _40  and  _43
REMARK   18  A    between atoms: _43  and  _44
REMARK   19  A    between atoms: _46  and  _48
REMARK   20  A    between atoms: _48  and  _49
REMARK   21  A    between atoms: _48  and  _51
REMARK   22  A    between atoms: _51  and  _52
REMARK   23  A    between atoms: _54  and  _56
REMARK   24  A    between atoms: _56  and  _57
REMARK   25  A    between atoms: _56  and  _59
REMARK   26  A    between atoms: _59  and  _60
REMARK   27  A    between atoms: _60  and  _61
REMARK   28  A    between atoms: _64  and  _66
REMARK   29  A    between atoms: _66  and  _67
REMARK   30  A    between atoms: _66  and  _69
REMARK   31  A    between atoms: _69  and  _70
REMARK   32  A    between atoms: _72  and  _74
REMARK   33  A    between atoms: _74  and  _75
REMARK   34  A    between atoms: _74  and  _77
REMARK   35  A    between atoms: _77  and  _78
REMARK   36  A    between atoms: _81  and  _83
REMARK   37  A    between atoms: _83  and  _84
REMARK   38  A    between atoms: _87  and  _89
REMARK   39  A    between atoms: _89  and  _90
REMARK   40  A    between atoms: _89  and  _92
REMARK   41  A    between atoms: _92  and  _93
REMARK   42  A    between atoms: _93  and  _94
REMARK   43  A    between atoms: _94  and  _95
REMARK   44  A    between atoms: _95  and  _96
REMARK   45  A    between atoms: _100  and  _102
REMARK   46  A    between atoms: _102  and  _103
REMARK   47  A    between atoms: _102  and  _105
REMARK   48  A    between atoms: _105  and  _106
REMARK   49  A    between atoms: _109  and  _111
REMARK   50  A    between atoms: _111  and  _112
REMARK   51  A    between atoms: _111  and  _114
REMARK   52  A    between atoms: _114  and  _115
REMARK   53  A    between atoms: _115  and  _116
REMARK   54  A    between atoms: _118  and  _120
REMARK   55  A    between atoms: _120  and  _121
REMARK   56  A    between atoms: _120  and  _123
REMARK   57  A    between atoms: _123  and  _124
REMARK   58  A    between atoms: _130  and  _132
REMARK   59  A    between atoms: _132  and  _133
REMARK   60  A    between atoms: _136  and  _138
REMARK   61  A    between atoms: _138  and  _139
REMARK   62  A    between atoms: _138  and  _141
REMARK   63  A    between atoms: _141  and  _142
REMARK   64  A    between atoms: _147  and  _149
REMARK   65  A    between atoms: _149  and  _150
REMARK   66  A    between atoms: _149  and  _152
REMARK   67  A    between atoms: _152  and  _153
REMARK   68  A    between atoms: _156  and  _158
REMARK   69  A    between atoms: _158  and  _159
REMARK   70  A    between atoms: _158  and  _161
REMARK   71  A    between atoms: _161  and  _162
REMARK   72  A    between atoms: _162  and  _163
REMARK   73  A    between atoms: _168  and  _170
REMARK   74  A    between atoms: _170  and  _171
REMARK   75  A    between atoms: _170  and  _173
REMARK   76  A    between atoms: _173  and  _174
REMARK   77  A    between atoms: _178  and  _179
REMARK   78  A    between atoms: _184  and  _186
REMARK   79  A    between atoms: _186  and  _187
REMARK   80  A    between atoms: _186  and  _189
REMARK   81  A    between atoms: _189  and  _190
REMARK   82  A    between atoms: _195  and  _196
REMARK   83  A    between atoms: _198  and  _200
REMARK   84  A    between atoms: _200  and  _201
REMARK   85  A    between atoms: _200  and  _203
REMARK   86  A    between atoms: _203  and  _204
REMARK   87  A    between atoms: _207  and  _209
REMARK   88  A    between atoms: _209  and  _210
REMARK   89  A    between atoms: _209  and  _212
REMARK   90  A    between atoms: _212  and  _213
REMARK   91  A    between atoms: _215  and  _217
REMARK   92  A    between atoms: _217  and  _218
REMARK   93  A    between atoms: _217  and  _220
REMARK   94  A    between atoms: _220  and  _221
REMARK   95  A    between atoms: _226  and  _228
REMARK   96  A    between atoms: _228  and  _229
REMARK   97  A    between atoms: _228  and  _231
REMARK   98  A    between atoms: _231  and  _232
REMARK   99  A    between atoms: _235  and  _237
REMARK  100  A    between atoms: _237  and  _238
REMARK  101  A    between atoms: _237  and  _240
REMARK  102  A    between atoms: _240  and  _241
REMARK  103  A    between atoms: _252  and  _253
REMARK  104  A    between atoms: _258  and  _260
REMARK  105  A    between atoms: _260  and  _261
REMARK  106  A    between atoms: _260  and  _263
REMARK  107  A    between atoms: _263  and  _264
REMARK  108  A    between atoms: _267  and  _269
REMARK  109  A    between atoms: _269  and  _270
REMARK  110  A    between atoms: _269  and  _272
REMARK  111  A    between atoms: _272  and  _273
REMARK  112  A    between atoms: _278  and  _280
REMARK  113  A    between atoms: _280  and  _281
REMARK  114  A    between atoms: _283  and  _285
REMARK  115  A    between atoms: _285  and  _286
REMARK  116  A    between atoms: _285  and  _288
REMARK  117  A    between atoms: _288  and  _289
REMARK  118  A    between atoms: _299  and  _301
REMARK  119  A    between atoms: _301  and  _302
REMARK  120  A    between atoms: _301  and  _304
REMARK  121  A    between atoms: _304  and  _305
REMARK  122  A    between atoms: _310  and  _311
REMARK  123  A    between atoms: _313  and  _315
REMARK  124  A    between atoms: _315  and  _316
REMARK  125  A    between atoms: _315  and  _318
REMARK  126  A    between atoms: _318  and  _319
REMARK  127  A    between atoms: _322  and  _324
REMARK  128  A    between atoms: _324  and  _325
REMARK  129  A    between atoms: _324  and  _327
REMARK  130  A    between atoms: _327  and  _328
REMARK  131  A    between atoms: _333  and  _335
REMARK  132  A    between atoms: _335  and  _336
REMARK  133  A    between atoms: _335  and  _338
REMARK  134  A    between atoms: _338  and  _339
REMARK  135  A    between atoms: _344  and  _346
REMARK  136  A    between atoms: _346  and  _347
REMARK  137  A    between atoms: _346  and  _349
REMARK  138  A    between atoms: _349  and  _350
REMARK  139  A    between atoms: _350  and  _351
REMARK  140  A    between atoms: _354  and  _356
REMARK  141  A    between atoms: _356  and  _357
REMARK  142  A    between atoms: _359  and  _361
REMARK  143  A    between atoms: _361  and  _362
REMARK  144  A    between atoms: _361  and  _364
REMARK  145  A    between atoms: _364  and  _365
REMARK  146  A    between atoms: _367  and  _369
REMARK  147  A    between atoms: _369  and  _370
REMARK  148  A    between atoms: _369  and  _372
REMARK  149  A    between atoms: _372  and  _373
REMARK  150  A    between atoms: _378  and  _379
REMARK  151  A    between atoms: _381  and  _383
REMARK  152  A    between atoms: _383  and  _384
REMARK  153  A    between atoms: _383  and  _386
REMARK  154  A    between atoms: _386  and  _387
REMARK  155  A    between atoms: _392  and  _394
REMARK  156  A    between atoms: _394  and  _395
REMARK  157  A    between atoms: _397  and  _399
REMARK  158  A    between atoms: _399  and  _400
REMARK  159  A    between atoms: _399  and  _402
REMARK  160  A    between atoms: _402  and  _403
REMARK  161  A    between atoms: _408  and  _410
REMARK  162  A    between atoms: _410  and  _411
REMARK  163  A    between atoms: _410  and  _413
REMARK  164  A    between atoms: _413  and  _414
REMARK  165  A    between atoms: _424  and  _426
REMARK  166  A    between atoms: _426  and  _427
REMARK  167  A    between atoms: _426  and  _429
REMARK  168  A    between atoms: _429  and  _430
REMARK  169  A    between atoms: _435  and  _437
REMARK  170  A    between atoms: _437  and  _438
REMARK  171  A    between atoms: _437  and  _440
REMARK  172  A    between atoms: _440  and  _441
REMARK  173  A    between atoms: _441  and  _442
REMARK  174  A    between atoms: _442  and  _443
REMARK  175  A    between atoms: _443  and  _444
REMARK  176  A    between atoms: _448  and  _450
REMARK  177  A    between atoms: _450  and  _451
REMARK  178  A    between atoms: _450  and  _453
REMARK  179  A    between atoms: _453  and  _454
REMARK  180  A    between atoms: _460  and  _462
REMARK  181  A    between atoms: _462  and  _463
REMARK  182  A    between atoms: _465  and  _467
REMARK  183  A    between atoms: _467  and  _468
REMARK  184  A    between atoms: _467  and  _470
REMARK  185  A    between atoms: _470  and  _471
REMARK  186  A    between atoms: _473  and  _475
REMARK  187  A    between atoms: _475  and  _476
REMARK  188  A    between atoms: _475  and  _478
REMARK  189  A    between atoms: _478  and  _479
REMARK  190  A    between atoms: _479  and  _480
REMARK  191  A    between atoms: _480  and  _481
REMARK  192  A    between atoms: _481  and  _482
REMARK  193  A    between atoms: _486  and  _488
REMARK  194  A    between atoms: _488  and  _489
REMARK  195  A    between atoms: _488  and  _491
REMARK  196  A    between atoms: _491  and  _492
REMARK  197  A    between atoms: _497  and  _499
REMARK  198  A    between atoms: _499  and  _500
REMARK  199  A    between atoms: _499  and  _502
REMARK  200  A    between atoms: _502  and  _503
REMARK  201  A    between atoms: _503  and  _504
REMARK  202  A    between atoms: _504  and  _505
REMARK  203  A    between atoms: _514  and  _516
REMARK  204  A    between atoms: _516  and  _517
REMARK  205  A    between atoms: _516  and  _519
REMARK  206  A    between atoms: _519  and  _520
REMARK  207  A    between atoms: _520  and  _521
REMARK  208  A    between atoms: _526  and  _528
REMARK  209  A    between atoms: _528  and  _529
REMARK  210  A    between atoms: _528  and  _531
REMARK  211  A    between atoms: _531  and  _532
REMARK  212  A    between atoms: _532  and  _533
REMARK  213  A    between atoms: _538  and  _540
REMARK  214  A    between atoms: _540  and  _541
REMARK  215  A    between atoms: _540  and  _543
REMARK  216  A    between atoms: _543  and  _544
REMARK  217  A    between atoms: _544  and  _545
REMARK  218  A    between atoms: _547  and  _549
REMARK  219  A    between atoms: _549  and  _550
REMARK  220  A    between atoms: _549  and  _552
REMARK  221  A    between atoms: _552  and  _553
REMARK  222  A    between atoms: _555  and  _557
REMARK  223  A    between atoms: _557  and  _558
REMARK  224  A    between atoms: _557  and  _560
REMARK  225  A    between atoms: _560  and  _561
REMARK  226  A    between atoms: _566  and  _567
REMARK  227  A    between atoms: _569  and  _571
REMARK  228  A    between atoms: _571  and  _572
REMARK  229  A    between atoms: _571  and  _574
REMARK  230  A    between atoms: _574  and  _575
REMARK  231  A    between atoms: _585  and  _587
REMARK  232  A    between atoms: _587  and  _588
REMARK  233  A    between atoms: _587  and  _590
REMARK  234  A    between atoms: _590  and  _591
REMARK  235  A    between atoms: _594  and  _596
REMARK  236  A    between atoms: _596  and  _597
REMARK  237  A    between atoms: _600  and  _602
REMARK  238  A    between atoms: _602  and  _603
REMARK  239  A    between atoms: _602  and  _605
REMARK  240  A    between atoms: _605  and  _606
REMARK                            x       y       z     vdW  Elec       q    Type
REMARK                         _______ _______ _______ _____ _____    ______ ____
ROOT
ATOM      1  O   HOH     1     -25.579   7.382 -10.450  0.00  0.00    +0.000 OA
ENDROOT
TORSDOF 0
REMARK  Name = ../refined-set-2016/4ua8/4ua8_pocket.pdb
REMARK  240 active torsions:
REMARK  status: ('A' for Active; 'I' for Inactive)
REMARK    1  A    between atoms: _1  and  _3
REMARK    2  A    between atoms: _3  and  _4
REMARK    3  A    between atoms: _7  and  _8
REMARK    4  A    between atoms: _13  and  _15
REMARK    5  A    between atoms: _15  and  _16
REMARK    6  A    between atoms: _19  and  _21
REMARK    7  A    between atoms: _21  and  _22
REMARK    8  A    between atoms: _21  and  _24
REMARK    9  A    between atoms: _24  and  _25
REMARK   10  A    between atoms: _25  and  _26
REMARK   11  A    between atoms: _29  and  _31
REMARK   12  A    between atoms: _31  and  _32
REMARK   13  A    between atoms: _31  and  _34
REMARK   14  A    between atoms: _34  and  _35
REMARK   15  A    between atoms: _38  and  _40
REMARK   16  A    between atoms: _40  and  _41
REMARK   17  A    between atoms: _40  and  _43
REMARK   18  A    between atoms: _43  and  _44
REMARK   19  A    between atoms: _46  and  _48
REMARK   20  A    between atoms: _48  and  _49
REMARK   21  A    between atoms: _48  and  _51
REMARK   22  A    between atoms: _51  and  _52
REMARK   23  A    between atoms: _54  and  _56
REMARK   24  A    between atoms: _56  and  _57
REMARK   25  A    between atoms: _56  and  _59
REMARK   26  A    between atoms: _59  and  _60
REMARK   27  A    between atoms: _60  and  _61
REMARK   28  A    between atoms: _64  and  _66
REMARK   29  A    between atoms: _66  and  _67
REMARK   30  A    between atoms: _66  and  _69
REMARK   31  A    between atoms: _69  and  _70
REMARK   32  A    between atoms: _72  and  _74
REMARK   33  A    between atoms: _74  and  _75
REMARK   34  A    between atoms: _74  and  _77
REMARK   35  A    between atoms: _77  and  _78
REMARK   36  A    between atoms: _81  and  _83
REMARK   37  A    between atoms: _83  and  _84
REMARK   38  A    between atoms: _87  and  _89
REMARK   39  A    between atoms: _89  and  _90
REMARK   40  A    between atoms: _89  and  _92
REMARK   41  A    between atoms: _92  and  _93
REMARK   42  A    between atoms: _93  and  _94
REMARK   43  A    between atoms: _94  and  _95
REMARK   44  A    between atoms: _95  and  _96
REMARK   45  A    between atoms: _100  and  _102
REMARK   46  A    between atoms: _102  and  _103
REMARK   47  A    between atoms: _102  and  _105
REMARK   48  A    between atoms: _105  and  _106
REMARK   49  A    between atoms: _109  and  _111
REMARK   50  A    between atoms: _111  and  _112
REMARK   51  A    between atoms: _111  and  _114
REMARK   52  A    between atoms: _114  and  _115
REMARK   53  A    between atoms: _115  and  _116
REMARK   54  A    between atoms: _118  and  _120
REMARK   55  A    between atoms: _120  and  _121
REMARK   56  A    between atoms: _120  and  _123
REMARK   57  A    between atoms: _123  and  _124
REMARK   58  A    between atoms: _130  and  _132
REMARK   59  A    between atoms: _132  and  _133
REMARK   60  A    between atoms: _136  and  _138
REMARK   61  A    between atoms: _138  and  _139
REMARK   62  A    between atoms: _138  and  _141
REMARK   63  A    between atoms: _141  and  _142
REMARK   64  A    between atoms: _147  and  _149
REMARK   65  A    between atoms: _149  and  _150
REMARK   66  A    between atoms: _149  and  _152
REMARK   67  A    between atoms: _152  and  _153
REMARK   68  A    between atoms: _156  and  _158
REMARK   69  A    between atoms: _158  and  _159
REMARK   70  A    between atoms: _158  and  _161
REMARK   71  A    between atoms: _161  and  _162
REMARK   72  A    between atoms: _162  and  _163
REMARK   73  A    between atoms: _168  and  _170
REMARK   74  A    between atoms: _170  and  _171
REMARK   75  A    between atoms: _170  and  _173
REMARK   76  A    between atoms: _173  and  _174
REMARK   77  A    between atoms: _178  and  _179
REMARK   78  A    between atoms: _184  and  _186
REMARK   79  A    between atoms: _186  and  _187
REMARK   80  A    between atoms: _186  and  _189
REMARK   81  A    between atoms: _189  and  _190
REMARK   82  A    between atoms: _195  and  _196
REMARK   83  A    between atoms: _198  and  _200
REMARK   84  A    between atoms: _200  and  _201
REMARK   85  A    between atoms: _200  and  _203
REMARK   86  A    between atoms: _203  and  _204
REMARK   87  A    between atoms: _207  and  _209
REMARK   88  A    between atoms: _209  and  _210
REMARK   89  A    between atoms: _209  and  _212
REMARK   90  A    between atoms: _212  and  _213
REMARK   91  A    between atoms: _215  and  _217
REMARK   92  A    between atoms: _217  and  _218
REMARK   93  A    between atoms: _217  and  _220
REMARK   94  A    between atoms: _220  and  _221
REMARK   95  A    between atoms: _226  and  _228
REMARK   96  A    between atoms: _228  and  _229
REMARK   97  A    between atoms: _228  and  _231
REMARK   98  A    between atoms: _231  and  _232
REMARK   99  A    between atoms: _235  and  _237
REMARK  100  A    between atoms: _237  and  _238
REMARK  101  A    between atoms: _237  and  _240
REMARK  102  A    between atoms: _240  and  _241
REMARK  103  A    between atoms: _252  and  _253
REMARK  104  A    between atoms: _258  and  _260
REMARK  105  A    between atoms: _260  and  _261
REMARK  106  A    between atoms: _260  and  _263
REMARK  107  A    between atoms: _263  and  _264
REMARK  108  A    between atoms: _267  and  _269
REMARK  109  A    between atoms: _269  and  _270
REMARK  110  A    between atoms: _269  and  _272
REMARK  111  A    between atoms: _272  and  _273
REMARK  112  A    between atoms: _278  and  _280
REMARK  113  A    between atoms: _280  and  _281
REMARK  114  A    between atoms: _283  and  _285
REMARK  115  A    between atoms: _285  and  _286
REMARK  116  A    between atoms: _285  and  _288
REMARK  117  A    between atoms: _288  and  _289
REMARK  118  A    between atoms: _299  and  _301
REMARK  119  A    between atoms: _301  and  _302
REMARK  120  A    between atoms: _301  and  _304
REMARK  121  A    between atoms: _304  and  _305
REMARK  122  A    between atoms: _310  and  _311
REMARK  123  A    between atoms: _313  and  _315
REMARK  124  A    between atoms: _315  and  _316
REMARK  125  A    between atoms: _315  and  _318
REMARK  126  A    between atoms: _318  and  _319
REMARK  127  A    between atoms: _322  and  _324
REMARK  128  A    between atoms: _324  and  _325
REMARK  129  A    between atoms: _324  and  _327
REMARK  130  A    between atoms: _327  and  _328
REMARK  131  A    between atoms: _333  and  _335
REMARK  132  A    between atoms: _335  and  _336
REMARK  133  A    between atoms: _335  and  _338
REMARK  134  A    between atoms: _338  and  _339
REMARK  135  A    between atoms: _344  and  _346
REMARK  136  A    between atoms: _346  and  _347
REMARK  137  A    between atoms: _346  and  _349
REMARK  138  A    between atoms: _349  and  _350
REMARK  139  A    between atoms: _350  and  _351
REMARK  140  A    between atoms: _354  and  _356
REMARK  141  A    between atoms: _356  and  _357
REMARK  142  A    between atoms: _359  and  _361
REMARK  143  A    between atoms: _361  and  _362
REMARK  144  A    between atoms: _361  and  _364
REMARK  145  A    between atoms: _364  and  _365
REMARK  146  A    between atoms: _367  and  _369
REMARK  147  A    between atoms: _369  and  _370
REMARK  148  A    between atoms: _369  and  _372
REMARK  149  A    between atoms: _372  and  _373
REMARK  150  A    between atoms: _378  and  _379
REMARK  151  A    between atoms: _381  and  _383
REMARK  152  A    between atoms: _383  and  _384
REMARK  153  A    between atoms: _383  and  _386
REMARK  154  A    between atoms: _386  and  _387
REMARK  155  A    between atoms: _392  and  _394
REMARK  156  A    between atoms: _394  and  _395
REMARK  157  A    between atoms: _397  and  _399
REMARK  158  A    between atoms: _399  and  _400
REMARK  159  A    between atoms: _399  and  _402
REMARK  160  A    between atoms: _402  and  _403
REMARK  161  A    between atoms: _408  and  _410
REMARK  162  A    between atoms: _410  and  _411
REMARK  163  A    between atoms: _410  and  _413
REMARK  164  A    between atoms: _413  and  _414
REMARK  165  A    between atoms: _424  and  _426
REMARK  166  A    between atoms: _426  and  _427
REMARK  167  A    between atoms: _426  and  _429
REMARK  168  A    between atoms: _429  and  _430
REMARK  169  A    between atoms: _435  and  _437
REMARK  170  A    between atoms: _437  and  _438
REMARK  171  A    between atoms: _437  and  _440
REMARK  172  A    between atoms: _440  and  _441
REMARK  173  A    between atoms: _441  and  _442
REMARK  174  A    between atoms: _442  and  _443
REMARK  175  A    between atoms: _443  and  _444
REMARK  176  A    between atoms: _448  and  _450
REMARK  177  A    between atoms: _450  and  _451
REMARK  178  A    between atoms: _450  and  _453
REMARK  179  A    between atoms: _453  and  _454
REMARK  180  A    between atoms: _460  and  _462
REMARK  181  A    between atoms: _462  and  _463
REMARK  182  A    between atoms: _465  and  _467
REMARK  183  A    between atoms: _467  and  _468
REMARK  184  A    between atoms: _467  and  _470
REMARK  185  A    between atoms: _470  and  _471
REMARK  186  A    between atoms: _473  and  _475
REMARK  187  A    between atoms: _475  and  _476
REMARK  188  A    between atoms: _475  and  _478
REMARK  189  A    between atoms: _478  and  _479
REMARK  190  A    between atoms: _479  and  _480
REMARK  191  A    between atoms: _480  and  _481
REMARK  192  A    between atoms: _481  and  _482
REMARK  193  A    between atoms: _486  and  _488
REMARK  194  A    between atoms: _488  and  _489
REMARK  195  A    between atoms: _488  and  _491
REMARK  196  A    between atoms: _491  and  _492
REMARK  197  A    between atoms: _497  and  _499
REMARK  198  A    between atoms: _499  and  _500
REMARK  199  A    between atoms: _499  and  _502
REMARK  200  A    between atoms: _502  and  _503
REMARK  201  A    between atoms: _503  and  _504
REMARK  202  A    between atoms: _504  and  _505
REMARK  203  A    between atoms: _514  and  _516
REMARK  204  A    between atoms: _516  and  _517
REMARK  205  A    between atoms: _516  and  _519
REMARK  206  A    between atoms: _519  and  _520
REMARK  207  A    between atoms: _520  and  _521
REMARK  208  A    between atoms: _526  and  _528
REMARK  209  A    between atoms: _528  and  _529
REMARK  210  A    between atoms: _528  and  _531
REMARK  211  A    between atoms: _531  and  _532
REMARK  212  A    between atoms: _532  and  _533
REMARK  213  A    between atoms: _538  and  _540
REMARK  214  A    between atoms: _540  and  _541
REMARK  215  A    between atoms: _540  and  _543
REMARK  216  A    between atoms: _543  and  _544
REMARK  217  A    between atoms: _544  and  _545
REMARK  218  A    between atoms: _547  and  _549
REMARK  219  A    between atoms: _549  and  _550
REMARK  220  A    between atoms: _549  and  _552
REMARK  221  A    between atoms: _552  and  _553
REMARK  222  A    between atoms: _555  and  _557
REMARK  223  A    between atoms: _557  and  _558
REMARK  224  A    between atoms: _557  and  _560
REMARK  225  A    between atoms: _560  and  _561
REMARK  226  A    between atoms: _566  and  _567
REMARK  227  A    between atoms: _569  and  _571
REMARK  228  A    between atoms: _571  and  _572
REMARK  229  A    between atoms: _571  and  _574
REMARK  230  A    between atoms: _574  and  _575
REMARK  231  A    between atoms: _585  and  _587
REMARK  232  A    between atoms: _587  and  _588
REMARK  233  A    between atoms: _587  and  _590
REMARK  234  A    between atoms: _590  and  _591
REMARK  235  A    between atoms: _594  and  _596
REMARK  236  A    between atoms: _596  and  _597
REMARK  237  A    between atoms: _600  and  _602
REMARK  238  A    between atoms: _602  and  _603
REMARK  239  A    between atoms: _602  and  _605
REMARK  240  A    between atoms: _605  and  _606
REMARK                            x       y       z     vdW  Elec       q    Type
REMARK                         _______ _______ _______ _____ _____    ______ ____
ROOT
ATOM      1  O   HOH     1     -19.528  15.838  -5.087  0.00  0.00    +0.000 OA
ENDROOT
TORSDOF 0
REMARK  Name = ../refined-set-2016/4ua8/4ua8_pocket.pdb
REMARK  240 active torsions:
REMARK  status: ('A' for Active; 'I' for Inactive)
REMARK    1  A    between atoms: _1  and  _3
REMARK    2  A    between atoms: _3  and  _4
REMARK    3  A    between atoms: _7  and  _8
REMARK    4  A    between atoms: _13  and  _15
REMARK    5  A    between atoms: _15  and  _16
REMARK    6  A    between atoms: _19  and  _21
REMARK    7  A    between atoms: _21  and  _22
REMARK    8  A    between atoms: _21  and  _24
REMARK    9  A    between atoms: _24  and  _25
REMARK   10  A    between atoms: _25  and  _26
REMARK   11  A    between atoms: _29  and  _31
REMARK   12  A    between atoms: _31  and  _32
REMARK   13  A    between atoms: _31  and  _34
REMARK   14  A    between atoms: _34  and  _35
REMARK   15  A    between atoms: _38  and  _40
REMARK   16  A    between atoms: _40  and  _41
REMARK   17  A    between atoms: _40  and  _43
REMARK   18  A    between atoms: _43  and  _44
REMARK   19  A    between atoms: _46  and  _48
REMARK   20  A    between atoms: _48  and  _49
REMARK   21  A    between atoms: _48  and  _51
REMARK   22  A    between atoms: _51  and  _52
REMARK   23  A    between atoms: _54  and  _56
REMARK   24  A    between atoms: _56  and  _57
REMARK   25  A    between atoms: _56  and  _59
REMARK   26  A    between atoms: _59  and  _60
REMARK   27  A    between atoms: _60  and  _61
REMARK   28  A    between atoms: _64  and  _66
REMARK   29  A    between atoms: _66  and  _67
REMARK   30  A    between atoms: _66  and  _69
REMARK   31  A    between atoms: _69  and  _70
REMARK   32  A    between atoms: _72  and  _74
REMARK   33  A    between atoms: _74  and  _75
REMARK   34  A    between atoms: _74  and  _77
REMARK   35  A    between atoms: _77  and  _78
REMARK   36  A    between atoms: _81  and  _83
REMARK   37  A    between atoms: _83  and  _84
REMARK   38  A    between atoms: _87  and  _89
REMARK   39  A    between atoms: _89  and  _90
REMARK   40  A    between atoms: _89  and  _92
REMARK   41  A    between atoms: _92  and  _93
REMARK   42  A    between atoms: _93  and  _94
REMARK   43  A    between atoms: _94  and  _95
REMARK   44  A    between atoms: _95  and  _96
REMARK   45  A    between atoms: _100  and  _102
REMARK   46  A    between atoms: _102  and  _103
REMARK   47  A    between atoms: _102  and  _105
REMARK   48  A    between atoms: _105  and  _106
REMARK   49  A    between atoms: _109  and  _111
REMARK   50  A    between atoms: _111  and  _112
REMARK   51  A    between atoms: _111  and  _114
REMARK   52  A    between atoms: _114  and  _115
REMARK   53  A    between atoms: _115  and  _116
REMARK   54  A    between atoms: _118  and  _120
REMARK   55  A    between atoms: _120  and  _121
REMARK   56  A    between atoms: _120  and  _123
REMARK   57  A    between atoms: _123  and  _124
REMARK   58  A    between atoms: _130  and  _132
REMARK   59  A    between atoms: _132  and  _133
REMARK   60  A    between atoms: _136  and  _138
REMARK   61  A    between atoms: _138  and  _139
REMARK   62  A    between atoms: _138  and  _141
REMARK   63  A    between atoms: _141  and  _142
REMARK   64  A    between atoms: _147  and  _149
REMARK   65  A    between atoms: _149  and  _150
REMARK   66  A    between atoms: _149  and  _152
REMARK   67  A    between atoms: _152  and  _153
REMARK   68  A    between atoms: _156  and  _158
REMARK   69  A    between atoms: _158  and  _159
REMARK   70  A    between atoms: _158  and  _161
REMARK   71  A    between atoms: _161  and  _162
REMARK   72  A    between atoms: _162  and  _163
REMARK   73  A    between atoms: _168  and  _170
REMARK   74  A    between atoms: _170  and  _171
REMARK   75  A    between atoms: _170  and  _173
REMARK   76  A    between atoms: _173  and  _174
REMARK   77  A    between atoms: _178  and  _179
REMARK   78  A    between atoms: _184  and  _186
REMARK   79  A    between atoms: _186  and  _187
REMARK   80  A    between atoms: _186  and  _189
REMARK   81  A    between atoms: _189  and  _190
REMARK   82  A    between atoms: _195  and  _196
REMARK   83  A    between atoms: _198  and  _200
REMARK   84  A    between atoms: _200  and  _201
REMARK   85  A    between atoms: _200  and  _203
REMARK   86  A    between atoms: _203  and  _204
REMARK   87  A    between atoms: _207  and  _209
REMARK   88  A    between atoms: _209  and  _210
REMARK   89  A    between atoms: _209  and  _212
REMARK   90  A    between atoms: _212  and  _213
REMARK   91  A    between atoms: _215  and  _217
REMARK   92  A    between atoms: _217  and  _218
REMARK   93  A    between atoms: _217  and  _220
REMARK   94  A    between atoms: _220  and  _221
REMARK   95  A    between atoms: _226  and  _228
REMARK   96  A    between atoms: _228  and  _229
REMARK   97  A    between atoms: _228  and  _231
REMARK   98  A    between atoms: _231  and  _232
REMARK   99  A    between atoms: _235  and  _237
REMARK  100  A    between atoms: _237  and  _238
REMARK  101  A    between atoms: _237  and  _240
REMARK  102  A    between atoms: _240  and  _241
REMARK  103  A    between atoms: _252  and  _253
REMARK  104  A    between atoms: _258  and  _260
REMARK  105  A    between atoms: _260  and  _261
REMARK  106  A    between atoms: _260  and  _263
REMARK  107  A    between atoms: _263  and  _264
REMARK  108  A    between atoms: _267  and  _269
REMARK  109  A    between atoms: _269  and  _270
REMARK  110  A    between atoms: _269  and  _272
REMARK  111  A    between atoms: _272  and  _273
REMARK  112  A    between atoms: _278  and  _280
REMARK  113  A    between atoms: _280  and  _281
REMARK  114  A    between atoms: _283  and  _285
REMARK  115  A    between atoms: _285  and  _286
REMARK  116  A    between atoms: _285  and  _288
REMARK  117  A    between atoms: _288  and  _289
REMARK  118  A    between atoms: _299  and  _301
REMARK  119  A    between atoms: _301  and  _302
REMARK  120  A    between atoms: _301  and  _304
REMARK  121  A    between atoms: _304  and  _305
REMARK  122  A    between atoms: _310  and  _311
REMARK  123  A    between atoms: _313  and  _315
REMARK  124  A    between atoms: _315  and  _316
REMARK  125  A    between atoms: _315  and  _318
REMARK  126  A    between atoms: _318  and  _319
REMARK  127  A    between atoms: _322  and  _324
REMARK  128  A    between atoms: _324  and  _325
REMARK  129  A    between atoms: _324  and  _327
REMARK  130  A    between atoms: _327  and  _328
REMARK  131  A    between atoms: _333  and  _335
REMARK  132  A    between atoms: _335  and  _336
REMARK  133  A    between atoms: _335  and  _338
REMARK  134  A    between atoms: _338  and  _339
REMARK  135  A    between atoms: _344  and  _346
REMARK  136  A    between atoms: _346  and  _347
REMARK  137  A    between atoms: _346  and  _349
REMARK  138  A    between atoms: _349  and  _350
REMARK  139  A    between atoms: _350  and  _351
REMARK  140  A    between atoms: _354  and  _356
REMARK  141  A    between atoms: _356  and  _357
REMARK  142  A    between atoms: _359  and  _361
REMARK  143  A    between atoms: _361  and  _362
REMARK  144  A    between atoms: _361  and  _364
REMARK  145  A    between atoms: _364  and  _365
REMARK  146  A    between atoms: _367  and  _369
REMARK  147  A    between atoms: _369  and  _370
REMARK  148  A    between atoms: _369  and  _372
REMARK  149  A    between atoms: _372  and  _373
REMARK  150  A    between atoms: _378  and  _379
REMARK  151  A    between atoms: _381  and  _383
REMARK  152  A    between atoms: _383  and  _384
REMARK  153  A    between atoms: _383  and  _386
REMARK  154  A    between atoms: _386  and  _387
REMARK  155  A    between atoms: _392  and  _394
REMARK  156  A    between atoms: _394  and  _395
REMARK  157  A    between atoms: _397  and  _399
REMARK  158  A    between atoms: _399  and  _400
REMARK  159  A    between atoms: _399  and  _402
REMARK  160  A    between atoms: _402  and  _403
REMARK  161  A    between atoms: _408  and  _410
REMARK  162  A    between atoms: _410  and  _411
REMARK  163  A    between atoms: _410  and  _413
REMARK  164  A    between atoms: _413  and  _414
REMARK  165  A    between atoms: _424  and  _426
REMARK  166  A    between atoms: _426  and  _427
REMARK  167  A    between atoms: _426  and  _429
REMARK  168  A    between atoms: _429  and  _430
REMARK  169  A    between atoms: _435  and  _437
REMARK  170  A    between atoms: _437  and  _438
REMARK  171  A    between atoms: _437  and  _440
REMARK  172  A    between atoms: _440  and  _441
REMARK  173  A    between atoms: _441  and  _442
REMARK  174  A    between atoms: _442  and  _443
REMARK  175  A    between atoms: _443  and  _444
REMARK  176  A    between atoms: _448  and  _450
REMARK  177  A    between atoms: _450  and  _451
REMARK  178  A    between atoms: _450  and  _453
REMARK  179  A    between atoms: _453  and  _454
REMARK  180  A    between atoms: _460  and  _462
REMARK  181  A    between atoms: _462  and  _463
REMARK  182  A    between atoms: _465  and  _467
REMARK  183  A    between atoms: _467  and  _468
REMARK  184  A    between atoms: _467  and  _470
REMARK  185  A    between atoms: _470  and  _471
REMARK  186  A    between atoms: _473  and  _475
REMARK  187  A    between atoms: _475  and  _476
REMARK  188  A    between atoms: _475  and  _478
REMARK  189  A    between atoms: _478  and  _479
REMARK  190  A    between atoms: _479  and  _480
REMARK  191  A    between atoms: _480  and  _481
REMARK  192  A    between atoms: _481  and  _482
REMARK  193  A    between atoms: _486  and  _488
REMARK  194  A    between atoms: _488  and  _489
REMARK  195  A    between atoms: _488  and  _491
REMARK  196  A    between atoms: _491  and  _492
REMARK  197  A    between atoms: _497  and  _499
REMARK  198  A    between atoms: _499  and  _500
REMARK  199  A    between atoms: _499  and  _502
REMARK  200  A    between atoms: _502  and  _503
REMARK  201  A    between atoms: _503  and  _504
REMARK  202  A    between atoms: _504  and  _505
REMARK  203  A    between atoms: _514  and  _516
REMARK  204  A    between atoms: _516  and  _517
REMARK  205  A    between atoms: _516  and  _519
REMARK  206  A    between atoms: _519  and  _520
REMARK  207  A    between atoms: _520  and  _521
REMARK  208  A    between atoms: _526  and  _528
REMARK  209  A    between atoms: _528  and  _529
REMARK  210  A    between atoms: _528  and  _531
REMARK  211  A    between atoms: _531  and  _532
REMARK  212  A    between atoms: _532  and  _533
REMARK  213  A    between atoms: _538  and  _540
REMARK  214  A    between atoms: _540  and  _541
REMARK  215  A    between atoms: _540  and  _543
REMARK  216  A    between atoms: _543  and  _544
REMARK  217  A    between atoms: _544  and  _545
REMARK  218  A    between atoms: _547  and  _549
REMARK  219  A    between atoms: _549  and  _550
REMARK  220  A    between atoms: _549  and  _552
REMARK  221  A    between atoms: _552  and  _553
REMARK  222  A    between atoms: _555  and  _557
REMARK  223  A    between atoms: _557  and  _558
REMARK  224  A    between atoms: _557  and  _560
REMARK  225  A    between atoms: _560  and  _561
REMARK  226  A    between atoms: _566  and  _567
REMARK  227  A    between atoms: _569  and  _571
REMARK  228  A    between atoms: _571  and  _572
REMARK  229  A    between atoms: _571  and  _574
REMARK  230  A    between atoms: _574  and  _575
REMARK  231  A    between atoms: _585  and  _587
REMARK  232  A    between atoms: _587  and  _588
REMARK  233  A    between atoms: _587  and  _590
REMARK  234  A    between atoms: _590  and  _591
REMARK  235  A    between atoms: _594  and  _596
REMARK  236  A    between atoms: _596  and  _597
REMARK  237  A    between atoms: _600  and  _602
REMARK  238  A    between atoms: _602  and  _603
REMARK  239  A    between atoms: _602  and  _605
REMARK  240  A    between atoms: _605  and  _606
REMARK                            x       y       z     vdW  Elec       q    Type
REMARK                         _______ _______ _______ _____ _____    ______ ____
ROOT
ATOM      1  O   HOH     1     -37.789  13.336  -0.550  0.00  0.00    +0.000 OA
ENDROOT
TORSDOF 0
REMARK  Name = ../refined-set-2016/4ua8/4ua8_pocket.pdb
REMARK  240 active torsions:
REMARK  status: ('A' for Active; 'I' for Inactive)
REMARK    1  A    between atoms: _1  and  _3
REMARK    2  A    between atoms: _3  and  _4
REMARK    3  A    between atoms: _7  and  _8
REMARK    4  A    between atoms: _13  and  _15
REMARK    5  A    between atoms: _15  and  _16
REMARK    6  A    between atoms: _19  and  _21
REMARK    7  A    between atoms: _21  and  _22
REMARK    8  A    between atoms: _21  and  _24
REMARK    9  A    between atoms: _24  and  _25
REMARK   10  A    between atoms: _25  and  _26
REMARK   11  A    between atoms: _29  and  _31
REMARK   12  A    between atoms: _31  and  _32
REMARK   13  A    between atoms: _31  and  _34
REMARK   14  A    between atoms: _34  and  _35
REMARK   15  A    between atoms: _38  and  _40
REMARK   16  A    between atoms: _40  and  _41
REMARK   17  A    between atoms: _40  and  _43
REMARK   18  A    between atoms: _43  and  _44
REMARK   19  A    between atoms: _46  and  _48
REMARK   20  A    between atoms: _48  and  _49
REMARK   21  A    between atoms: _48  and  _51
REMARK   22  A    between atoms: _51  and  _52
REMARK   23  A    between atoms: _54  and  _56
REMARK   24  A    between atoms: _56  and  _57
REMARK   25  A    between atoms: _56  and  _59
REMARK   26  A    between atoms: _59  and  _60
REMARK   27  A    between atoms: _60  and  _61
REMARK   28  A    between atoms: _64  and  _66
REMARK   29  A    between atoms: _66  and  _67
REMARK   30  A    between atoms: _66  and  _69
REMARK   31  A    between atoms: _69  and  _70
REMARK   32  A    between atoms: _72  and  _74
REMARK   33  A    between atoms: _74  and  _75
REMARK   34  A    between atoms: _74  and  _77
REMARK   35  A    between atoms: _77  and  _78
REMARK   36  A    between atoms: _81  and  _83
REMARK   37  A    between atoms: _83  and  _84
REMARK   38  A    between atoms: _87  and  _89
REMARK   39  A    between atoms: _89  and  _90
REMARK   40  A    between atoms: _89  and  _92
REMARK   41  A    between atoms: _92  and  _93
REMARK   42  A    between atoms: _93  and  _94
REMARK   43  A    between atoms: _94  and  _95
REMARK   44  A    between atoms: _95  and  _96
REMARK   45  A    between atoms: _100  and  _102
REMARK   46  A    between atoms: _102  and  _103
REMARK   47  A    between atoms: _102  and  _105
REMARK   48  A    between atoms: _105  and  _106
REMARK   49  A    between atoms: _109  and  _111
REMARK   50  A    between atoms: _111  and  _112
REMARK   51  A    between atoms: _111  and  _114
REMARK   52  A    between atoms: _114  and  _115
REMARK   53  A    between atoms: _115  and  _116
REMARK   54  A    between atoms: _118  and  _120
REMARK   55  A    between atoms: _120  and  _121
REMARK   56  A    between atoms: _120  and  _123
REMARK   57  A    between atoms: _123  and  _124
REMARK   58  A    between atoms: _130  and  _132
REMARK   59  A    between atoms: _132  and  _133
REMARK   60  A    between atoms: _136  and  _138
REMARK   61  A    between atoms: _138  and  _139
REMARK   62  A    between atoms: _138  and  _141
REMARK   63  A    between atoms: _141  and  _142
REMARK   64  A    between atoms: _147  and  _149
REMARK   65  A    between atoms: _149  and  _150
REMARK   66  A    between atoms: _149  and  _152
REMARK   67  A    between atoms: _152  and  _153
REMARK   68  A    between atoms: _156  and  _158
REMARK   69  A    between atoms: _158  and  _159
REMARK   70  A    between atoms: _158  and  _161
REMARK   71  A    between atoms: _161  and  _162
REMARK   72  A    between atoms: _162  and  _163
REMARK   73  A    between atoms: _168  and  _170
REMARK   74  A    between atoms: _170  and  _171
REMARK   75  A    between atoms: _170  and  _173
REMARK   76  A    between atoms: _173  and  _174
REMARK   77  A    between atoms: _178  and  _179
REMARK   78  A    between atoms: _184  and  _186
REMARK   79  A    between atoms: _186  and  _187
REMARK   80  A    between atoms: _186  and  _189
REMARK   81  A    between atoms: _189  and  _190
REMARK   82  A    between atoms: _195  and  _196
REMARK   83  A    between atoms: _198  and  _200
REMARK   84  A    between atoms: _200  and  _201
REMARK   85  A    between atoms: _200  and  _203
REMARK   86  A    between atoms: _203  and  _204
REMARK   87  A    between atoms: _207  and  _209
REMARK   88  A    between atoms: _209  and  _210
REMARK   89  A    between atoms: _209  and  _212
REMARK   90  A    between atoms: _212  and  _213
REMARK   91  A    between atoms: _215  and  _217
REMARK   92  A    between atoms: _217  and  _218
REMARK   93  A    between atoms: _217  and  _220
REMARK   94  A    between atoms: _220  and  _221
REMARK   95  A    between atoms: _226  and  _228
REMARK   96  A    between atoms: _228  and  _229
REMARK   97  A    between atoms: _228  and  _231
REMARK   98  A    between atoms: _231  and  _232
REMARK   99  A    between atoms: _235  and  _237
REMARK  100  A    between atoms: _237  and  _238
REMARK  101  A    between atoms: _237  and  _240
REMARK  102  A    between atoms: _240  and  _241
REMARK  103  A    between atoms: _252  and  _253
REMARK  104  A    between atoms: _258  and  _260
REMARK  105  A    between atoms: _260  and  _261
REMARK  106  A    between atoms: _260  and  _263
REMARK  107  A    between atoms: _263  and  _264
REMARK  108  A    between atoms: _267  and  _269
REMARK  109  A    between atoms: _269  and  _270
REMARK  110  A    between atoms: _269  and  _272
REMARK  111  A    between atoms: _272  and  _273
REMARK  112  A    between atoms: _278  and  _280
REMARK  113  A    between atoms: _280  and  _281
REMARK  114  A    between atoms: _283  and  _285
REMARK  115  A    between atoms: _285  and  _286
REMARK  116  A    between atoms: _285  and  _288
REMARK  117  A    between atoms: _288  and  _289
REMARK  118  A    between atoms: _299  and  _301
REMARK  119  A    between atoms: _301  and  _302
REMARK  120  A    between atoms: _301  and  _304
REMARK  121  A    between atoms: _304  and  _305
REMARK  122  A    between atoms: _310  and  _311
REMARK  123  A    between atoms: _313  and  _315
REMARK  124  A    between atoms: _315  and  _316
REMARK  125  A    between atoms: _315  and  _318
REMARK  126  A    between atoms: _318  and  _319
REMARK  127  A    between atoms: _322  and  _324
REMARK  128  A    between atoms: _324  and  _325
REMARK  129  A    between atoms: _324  and  _327
REMARK  130  A    between atoms: _327  and  _328
REMARK  131  A    between atoms: _333  and  _335
REMARK  132  A    between atoms: _335  and  _336
REMARK  133  A    between atoms: _335  and  _338
REMARK  134  A    between atoms: _338  and  _339
REMARK  135  A    between atoms: _344  and  _346
REMARK  136  A    between atoms: _346  and  _347
REMARK  137  A    between atoms: _346  and  _349
REMARK  138  A    between atoms: _349  and  _350
REMARK  139  A    between atoms: _350  and  _351
REMARK  140  A    between atoms: _354  and  _356
REMARK  141  A    between atoms: _356  and  _357
REMARK  142  A    between atoms: _359  and  _361
REMARK  143  A    between atoms: _361  and  _362
REMARK  144  A    between atoms: _361  and  _364
REMARK  145  A    between atoms: _364  and  _365
REMARK  146  A    between atoms: _367  and  _369
REMARK  147  A    between atoms: _369  and  _370
REMARK  148  A    between atoms: _369  and  _372
REMARK  149  A    between atoms: _372  and  _373
REMARK  150  A    between atoms: _378  and  _379
REMARK  151  A    between atoms: _381  and  _383
REMARK  152  A    between atoms: _383  and  _384
REMARK  153  A    between atoms: _383  and  _386
REMARK  154  A    between atoms: _386  and  _387
REMARK  155  A    between atoms: _392  and  _394
REMARK  156  A    between atoms: _394  and  _395
REMARK  157  A    between atoms: _397  and  _399
REMARK  158  A    between atoms: _399  and  _400
REMARK  159  A    between atoms: _399  and  _402
REMARK  160  A    between atoms: _402  and  _403
REMARK  161  A    between atoms: _408  and  _410
REMARK  162  A    between atoms: _410  and  _411
REMARK  163  A    between atoms: _410  and  _413
REMARK  164  A    between atoms: _413  and  _414
REMARK  165  A    between atoms: _424  and  _426
REMARK  166  A    between atoms: _426  and  _427
REMARK  167  A    between atoms: _426  and  _429
REMARK  168  A    between atoms: _429  and  _430
REMARK  169  A    between atoms: _435  and  _437
REMARK  170  A    between atoms: _437  and  _438
REMARK  171  A    between atoms: _437  and  _440
REMARK  172  A    between atoms: _440  and  _441
REMARK  173  A    between atoms: _441  and  _442
REMARK  174  A    between atoms: _442  and  _443
REMARK  175  A    between atoms: _443  and  _444
REMARK  176  A    between atoms: _448  and  _450
REMARK  177  A    between atoms: _450  and  _451
REMARK  178  A    between atoms: _450  and  _453
REMARK  179  A    between atoms: _453  and  _454
REMARK  180  A    between atoms: _460  and  _462
REMARK  181  A    between atoms: _462  and  _463
REMARK  182  A    between atoms: _465  and  _467
REMARK  183  A    between atoms: _467  and  _468
REMARK  184  A    between atoms: _467  and  _470
REMARK  185  A    between atoms: _470  and  _471
REMARK  186  A    between atoms: _473  and  _475
REMARK  187  A    between atoms: _475  and  _476
REMARK  188  A    between atoms: _475  and  _478
REMARK  189  A    between atoms: _478  and  _479
REMARK  190  A    between atoms: _479  and  _480
REMARK  191  A    between atoms: _480  and  _481
REMARK  192  A    between atoms: _481  and  _482
REMARK  193  A    between atoms: _486  and  _488
REMARK  194  A    between atoms: _488  and  _489
REMARK  195  A    between atoms: _488  and  _491
REMARK  196  A    between atoms: _491  and  _492
REMARK  197  A    between atoms: _497  and  _499
REMARK  198  A    between atoms: _499  and  _500
REMARK  199  A    between atoms: _499  and  _502
REMARK  200  A    between atoms: _502  and  _503
REMARK  201  A    between atoms: _503  and  _504
REMARK  202  A    between atoms: _504  and  _505
REMARK  203  A    between atoms: _514  and  _516
REMARK  204  A    between atoms: _516  and  _517
REMARK  205  A    between atoms: _516  and  _519
REMARK  206  A    between atoms: _519  and  _520
REMARK  207  A    between atoms: _520  and  _521
REMARK  208  A    between atoms: _526  and  _528
REMARK  209  A    between atoms: _528  and  _529
REMARK  210  A    between atoms: _528  and  _531
REMARK  211  A    between atoms: _531  and  _532
REMARK  212  A    between atoms: _532  and  _533
REMARK  213  A    between atoms: _538  and  _540
REMARK  214  A    between atoms: _540  and  _541
REMARK  215  A    between atoms: _540  and  _543
REMARK  216  A    between atoms: _543  and  _544
REMARK  217  A    between atoms: _544  and  _545
REMARK  218  A    between atoms: _547  and  _549
REMARK  219  A    between atoms: _549  and  _550
REMARK  220  A    between atoms: _549  and  _552
REMARK  221  A    between atoms: _552  and  _553
REMARK  222  A    between atoms: _555  and  _557
REMARK  223  A    between atoms: _557  and  _558
REMARK  224  A    between atoms: _557  and  _560
REMARK  225  A    between atoms: _560  and  _561
REMARK  226  A    between atoms: _566  and  _567
REMARK  227  A    between atoms: _569  and  _571
REMARK  228  A    between atoms: _571  and  _572
REMARK  229  A    between atoms: _571  and  _574
REMARK  230  A    between atoms: _574  and  _575
REMARK  231  A    between atoms: _585  and  _587
REMARK  232  A    between atoms: _587  and  _588
REMARK  233  A    between atoms: _587  and  _590
REMARK  234  A    between atoms: _590  and  _591
REMARK  235  A    between atoms: _594  and  _596
REMARK  236  A    between atoms: _596  and  _597
REMARK  237  A    between atoms: _600  and  _602
REMARK  238  A    between atoms: _602  and  _603
REMARK  239  A    between atoms: _602  and  _605
REMARK  240  A    between atoms: _605  and  _606
REMARK                            x       y       z     vdW  Elec       q    Type
REMARK                         _______ _______ _______ _____ _____    ______ ____
ROOT
ATOM      1  O   HOH     1     -18.776  11.901 -10.500  0.00  0.00    +0.000 OA
ENDROOT
TORSDOF 0
REMARK  Name = ../refined-set-2016/4ua8/4ua8_pocket.pdb
REMARK  240 active torsions:
REMARK  status: ('A' for Active; 'I' for Inactive)
REMARK    1  A    between atoms: _1  and  _3
REMARK    2  A    between atoms: _3  and  _4
REMARK    3  A    between atoms: _7  and  _8
REMARK    4  A    between atoms: _13  and  _15
REMARK    5  A    between atoms: _15  and  _16
REMARK    6  A    between atoms: _19  and  _21
REMARK    7  A    between atoms: _21  and  _22
REMARK    8  A    between atoms: _21  and  _24
REMARK    9  A    between atoms: _24  and  _25
REMARK   10  A    between atoms: _25  and  _26
REMARK   11  A    between atoms: _29  and  _31
REMARK   12  A    between atoms: _31  and  _32
REMARK   13  A    between atoms: _31  and  _34
REMARK   14  A    between atoms: _34  and  _35
REMARK   15  A    between atoms: _38  and  _40
REMARK   16  A    between atoms: _40  and  _41
REMARK   17  A    between atoms: _40  and  _43
REMARK   18  A    between atoms: _43  and  _44
REMARK   19  A    between atoms: _46  and  _48
REMARK   20  A    between atoms: _48  and  _49
REMARK   21  A    between atoms: _48  and  _51
REMARK   22  A    between atoms: _51  and  _52
REMARK   23  A    between atoms: _54  and  _56
REMARK   24  A    between atoms: _56  and  _57
REMARK   25  A    between atoms: _56  and  _59
REMARK   26  A    between atoms: _59  and  _60
REMARK   27  A    between atoms: _60  and  _61
REMARK   28  A    between atoms: _64  and  _66
REMARK   29  A    between atoms: _66  and  _67
REMARK   30  A    between atoms: _66  and  _69
REMARK   31  A    between atoms: _69  and  _70
REMARK   32  A    between atoms: _72  and  _74
REMARK   33  A    between atoms: _74  and  _75
REMARK   34  A    between atoms: _74  and  _77
REMARK   35  A    between atoms: _77  and  _78
REMARK   36  A    between atoms: _81  and  _83
REMARK   37  A    between atoms: _83  and  _84
REMARK   38  A    between atoms: _87  and  _89
REMARK   39  A    between atoms: _89  and  _90
REMARK   40  A    between atoms: _89  and  _92
REMARK   41  A    between atoms: _92  and  _93
REMARK   42  A    between atoms: _93  and  _94
REMARK   43  A    between atoms: _94  and  _95
REMARK   44  A    between atoms: _95  and  _96
REMARK   45  A    between atoms: _100  and  _102
REMARK   46  A    between atoms: _102  and  _103
REMARK   47  A    between atoms: _102  and  _105
REMARK   48  A    between atoms: _105  and  _106
REMARK   49  A    between atoms: _109  and  _111
REMARK   50  A    between atoms: _111  and  _112
REMARK   51  A    between atoms: _111  and  _114
REMARK   52  A    between atoms: _114  and  _115
REMARK   53  A    between atoms: _115  and  _116
REMARK   54  A    between atoms: _118  and  _120
REMARK   55  A    between atoms: _120  and  _121
REMARK   56  A    between atoms: _120  and  _123
REMARK   57  A    between atoms: _123  and  _124
REMARK   58  A    between atoms: _130  and  _132
REMARK   59  A    between atoms: _132  and  _133
REMARK   60  A    between atoms: _136  and  _138
REMARK   61  A    between atoms: _138  and  _139
REMARK   62  A    between atoms: _138  and  _141
REMARK   63  A    between atoms: _141  and  _142
REMARK   64  A    between atoms: _147  and  _149
REMARK   65  A    between atoms: _149  and  _150
REMARK   66  A    between atoms: _149  and  _152
REMARK   67  A    between atoms: _152  and  _153
REMARK   68  A    between atoms: _156  and  _158
REMARK   69  A    between atoms: _158  and  _159
REMARK   70  A    between atoms: _158  and  _161
REMARK   71  A    between atoms: _161  and  _162
REMARK   72  A    between atoms: _162  and  _163
REMARK   73  A    between atoms: _168  and  _170
REMARK   74  A    between atoms: _170  and  _171
REMARK   75  A    between atoms: _170  and  _173
REMARK   76  A    between atoms: _173  and  _174
REMARK   77  A    between atoms: _178  and  _179
REMARK   78  A    between atoms: _184  and  _186
REMARK   79  A    between atoms: _186  and  _187
REMARK   80  A    between atoms: _186  and  _189
REMARK   81  A    between atoms: _189  and  _190
REMARK   82  A    between atoms: _195  and  _196
REMARK   83  A    between atoms: _198  and  _200
REMARK   84  A    between atoms: _200  and  _201
REMARK   85  A    between atoms: _200  and  _203
REMARK   86  A    between atoms: _203  and  _204
REMARK   87  A    between atoms: _207  and  _209
REMARK   88  A    between atoms: _209  and  _210
REMARK   89  A    between atoms: _209  and  _212
REMARK   90  A    between atoms: _212  and  _213
REMARK   91  A    between atoms: _215  and  _217
REMARK   92  A    between atoms: _217  and  _218
REMARK   93  A    between atoms: _217  and  _220
REMARK   94  A    between atoms: _220  and  _221
REMARK   95  A    between atoms: _226  and  _228
REMARK   96  A    between atoms: _228  and  _229
REMARK   97  A    between atoms: _228  and  _231
REMARK   98  A    between atoms: _231  and  _232
REMARK   99  A    between atoms: _235  and  _237
REMARK  100  A    between atoms: _237  and  _238
REMARK  101  A    between atoms: _237  and  _240
REMARK  102  A    between atoms: _240  and  _241
REMARK  103  A    between atoms: _252  and  _253
REMARK  104  A    between atoms: _258  and  _260
REMARK  105  A    between atoms: _260  and  _261
REMARK  106  A    between atoms: _260  and  _263
REMARK  107  A    between atoms: _263  and  _264
REMARK  108  A    between atoms: _267  and  _269
REMARK  109  A    between atoms: _269  and  _270
REMARK  110  A    between atoms: _269  and  _272
REMARK  111  A    between atoms: _272  and  _273
REMARK  112  A    between atoms: _278  and  _280
REMARK  113  A    between atoms: _280  and  _281
REMARK  114  A    between atoms: _283  and  _285
REMARK  115  A    between atoms: _285  and  _286
REMARK  116  A    between atoms: _285  and  _288
REMARK  117  A    between atoms: _288  and  _289
REMARK  118  A    between atoms: _299  and  _301
REMARK  119  A    between atoms: _301  and  _302
REMARK  120  A    between atoms: _301  and  _304
REMARK  121  A    between atoms: _304  and  _305
REMARK  122  A    between atoms: _310  and  _311
REMARK  123  A    between atoms: _313  and  _315
REMARK  124  A    between atoms: _315  and  _316
REMARK  125  A    between atoms: _315  and  _318
REMARK  126  A    between atoms: _318  and  _319
REMARK  127  A    between atoms: _322  and  _324
REMARK  128  A    between atoms: _324  and  _325
REMARK  129  A    between atoms: _324  and  _327
REMARK  130  A    between atoms: _327  and  _328
REMARK  131  A    between atoms: _333  and  _335
REMARK  132  A    between atoms: _335  and  _336
REMARK  133  A    between atoms: _335  and  _338
REMARK  134  A    between atoms: _338  and  _339
REMARK  135  A    between atoms: _344  and  _346
REMARK  136  A    between atoms: _346  and  _347
REMARK  137  A    between atoms: _346  and  _349
REMARK  138  A    between atoms: _349  and  _350
REMARK  139  A    between atoms: _350  and  _351
REMARK  140  A    between atoms: _354  and  _356
REMARK  141  A    between atoms: _356  and  _357
REMARK  142  A    between atoms: _359  and  _361
REMARK  143  A    between atoms: _361  and  _362
REMARK  144  A    between atoms: _361  and  _364
REMARK  145  A    between atoms: _364  and  _365
REMARK  146  A    between atoms: _367  and  _369
REMARK  147  A    between atoms: _369  and  _370
REMARK  148  A    between atoms: _369  and  _372
REMARK  149  A    between atoms: _372  and  _373
REMARK  150  A    between atoms: _378  and  _379
REMARK  151  A    between atoms: _381  and  _383
REMARK  152  A    between atoms: _383  and  _384
REMARK  153  A    between atoms: _383  and  _386
REMARK  154  A    between atoms: _386  and  _387
REMARK  155  A    between atoms: _392  and  _394
REMARK  156  A    between atoms: _394  and  _395
REMARK  157  A    between atoms: _397  and  _399
REMARK  158  A    between atoms: _399  and  _400
REMARK  159  A    between atoms: _399  and  _402
REMARK  160  A    between atoms: _402  and  _403
REMARK  161  A    between atoms: _408  and  _410
REMARK  162  A    between atoms: _410  and  _411
REMARK  163  A    between atoms: _410  and  _413
REMARK  164  A    between atoms: _413  and  _414
REMARK  165  A    between atoms: _424  and  _426
REMARK  166  A    between atoms: _426  and  _427
REMARK  167  A    between atoms: _426  and  _429
REMARK  168  A    between atoms: _429  and  _430
REMARK  169  A    between atoms: _435  and  _437
REMARK  170  A    between atoms: _437  and  _438
REMARK  171  A    between atoms: _437  and  _440
REMARK  172  A    between atoms: _440  and  _441
REMARK  173  A    between atoms: _441  and  _442
REMARK  174  A    between atoms: _442  and  _443
REMARK  175  A    between atoms: _443  and  _444
REMARK  176  A    between atoms: _448  and  _450
REMARK  177  A    between atoms: _450  and  _451
REMARK  178  A    between atoms: _450  and  _453
REMARK  179  A    between atoms: _453  and  _454
REMARK  180  A    between atoms: _460  and  _462
REMARK  181  A    between atoms: _462  and  _463
REMARK  182  A    between atoms: _465  and  _467
REMARK  183  A    between atoms: _467  and  _468
REMARK  184  A    between atoms: _467  and  _470
REMARK  185  A    between atoms: _470  and  _471
REMARK  186  A    between atoms: _473  and  _475
REMARK  187  A    between atoms: _475  and  _476
REMARK  188  A    between atoms: _475  and  _478
REMARK  189  A    between atoms: _478  and  _479
REMARK  190  A    between atoms: _479  and  _480
REMARK  191  A    between atoms: _480  and  _481
REMARK  192  A    between atoms: _481  and  _482
REMARK  193  A    between atoms: _486  and  _488
REMARK  194  A    between atoms: _488  and  _489
REMARK  195  A    between atoms: _488  and  _491
REMARK  196  A    between atoms: _491  and  _492
REMARK  197  A    between atoms: _497  and  _499
REMARK  198  A    between atoms: _499  and  _500
REMARK  199  A    between atoms: _499  and  _502
REMARK  200  A    between atoms: _502  and  _503
REMARK  201  A    between atoms: _503  and  _504
REMARK  202  A    between atoms: _504  and  _505
REMARK  203  A    between atoms: _514  and  _516
REMARK  204  A    between atoms: _516  and  _517
REMARK  205  A    between atoms: _516  and  _519
REMARK  206  A    between atoms: _519  and  _520
REMARK  207  A    between atoms: _520  and  _521
REMARK  208  A    between atoms: _526  and  _528
REMARK  209  A    between atoms: _528  and  _529
REMARK  210  A    between atoms: _528  and  _531
REMARK  211  A    between atoms: _531  and  _532
REMARK  212  A    between atoms: _532  and  _533
REMARK  213  A    between atoms: _538  and  _540
REMARK  214  A    between atoms: _540  and  _541
REMARK  215  A    between atoms: _540  and  _543
REMARK  216  A    between atoms: _543  and  _544
REMARK  217  A    between atoms: _544  and  _545
REMARK  218  A    between atoms: _547  and  _549
REMARK  219  A    between atoms: _549  and  _550
REMARK  220  A    between atoms: _549  and  _552
REMARK  221  A    between atoms: _552  and  _553
REMARK  222  A    between atoms: _555  and  _557
REMARK  223  A    between atoms: _557  and  _558
REMARK  224  A    between atoms: _557  and  _560
REMARK  225  A    between atoms: _560  and  _561
REMARK  226  A    between atoms: _566  and  _567
REMARK  227  A    between atoms: _569  and  _571
REMARK  228  A    between atoms: _571  and  _572
REMARK  229  A    between atoms: _571  and  _574
REMARK  230  A    between atoms: _574  and  _575
REMARK  231  A    between atoms: _585  and  _587
REMARK  232  A    between atoms: _587  and  _588
REMARK  233  A    between atoms: _587  and  _590
REMARK  234  A    between atoms: _590  and  _591
REMARK  235  A    between atoms: _594  and  _596
REMARK  236  A    between atoms: _596  and  _597
REMARK  237  A    between atoms: _600  and  _602
REMARK  238  A    between atoms: _602  and  _603
REMARK  239  A    between atoms: _602  and  _605
REMARK  240  A    between atoms: _605  and  _606
REMARK                            x       y       z     vdW  Elec       q    Type
REMARK                         _______ _______ _______ _____ _____    ______ ____
ROOT
ATOM      1  O   HOH     1     -39.392   4.356  -5.086  0.00  0.00    +0.000 OA
ENDROOT
TORSDOF 0
REMARK  Name = ../refined-set-2016/4ua8/4ua8_pocket.pdb
REMARK  240 active torsions:
REMARK  status: ('A' for Active; 'I' for Inactive)
REMARK    1  A    between atoms: _1  and  _3
REMARK    2  A    between atoms: _3  and  _4
REMARK    3  A    between atoms: _7  and  _8
REMARK    4  A    between atoms: _13  and  _15
REMARK    5  A    between atoms: _15  and  _16
REMARK    6  A    between atoms: _19  and  _21
REMARK    7  A    between atoms: _21  and  _22
REMARK    8  A    between atoms: _21  and  _24
REMARK    9  A    between atoms: _24  and  _25
REMARK   10  A    between atoms: _25  and  _26
REMARK   11  A    between atoms: _29  and  _31
REMARK   12  A    between atoms: _31  and  _32
REMARK   13  A    between atoms: _31  and  _34
REMARK   14  A    between atoms: _34  and  _35
REMARK   15  A    between atoms: _38  and  _40
REMARK   16  A    between atoms: _40  and  _41
REMARK   17  A    between atoms: _40  and  _43
REMARK   18  A    between atoms: _43  and  _44
REMARK   19  A    between atoms: _46  and  _48
REMARK   20  A    between atoms: _48  and  _49
REMARK   21  A    between atoms: _48  and  _51
REMARK   22  A    between atoms: _51  and  _52
REMARK   23  A    between atoms: _54  and  _56
REMARK   24  A    between atoms: _56  and  _57
REMARK   25  A    between atoms: _56  and  _59
REMARK   26  A    between atoms: _59  and  _60
REMARK   27  A    between atoms: _60  and  _61
REMARK   28  A    between atoms: _64  and  _66
REMARK   29  A    between atoms: _66  and  _67
REMARK   30  A    between atoms: _66  and  _69
REMARK   31  A    between atoms: _69  and  _70
REMARK   32  A    between atoms: _72  and  _74
REMARK   33  A    between atoms: _74  and  _75
REMARK   34  A    between atoms: _74  and  _77
REMARK   35  A    between atoms: _77  and  _78
REMARK   36  A    between atoms: _81  and  _83
REMARK   37  A    between atoms: _83  and  _84
REMARK   38  A    between atoms: _87  and  _89
REMARK   39  A    between atoms: _89  and  _90
REMARK   40  A    between atoms: _89  and  _92
REMARK   41  A    between atoms: _92  and  _93
REMARK   42  A    between atoms: _93  and  _94
REMARK   43  A    between atoms: _94  and  _95
REMARK   44  A    between atoms: _95  and  _96
REMARK   45  A    between atoms: _100  and  _102
REMARK   46  A    between atoms: _102  and  _103
REMARK   47  A    between atoms: _102  and  _105
REMARK   48  A    between atoms: _105  and  _106
REMARK   49  A    between atoms: _109  and  _111
REMARK   50  A    between atoms: _111  and  _112
REMARK   51  A    between atoms: _111  and  _114
REMARK   52  A    between atoms: _114  and  _115
REMARK   53  A    between atoms: _115  and  _116
REMARK   54  A    between atoms: _118  and  _120
REMARK   55  A    between atoms: _120  and  _121
REMARK   56  A    between atoms: _120  and  _123
REMARK   57  A    between atoms: _123  and  _124
REMARK   58  A    between atoms: _130  and  _132
REMARK   59  A    between atoms: _132  and  _133
REMARK   60  A    between atoms: _136  and  _138
REMARK   61  A    between atoms: _138  and  _139
REMARK   62  A    between atoms: _138  and  _141
REMARK   63  A    between atoms: _141  and  _142
REMARK   64  A    between atoms: _147  and  _149
REMARK   65  A    between atoms: _149  and  _150
REMARK   66  A    between atoms: _149  and  _152
REMARK   67  A    between atoms: _152  and  _153
REMARK   68  A    between atoms: _156  and  _158
REMARK   69  A    between atoms: _158  and  _159
REMARK   70  A    between atoms: _158  and  _161
REMARK   71  A    between atoms: _161  and  _162
REMARK   72  A    between atoms: _162  and  _163
REMARK   73  A    between atoms: _168  and  _170
REMARK   74  A    between atoms: _170  and  _171
REMARK   75  A    between atoms: _170  and  _173
REMARK   76  A    between atoms: _173  and  _174
REMARK   77  A    between atoms: _178  and  _179
REMARK   78  A    between atoms: _184  and  _186
REMARK   79  A    between atoms: _186  and  _187
REMARK   80  A    between atoms: _186  and  _189
REMARK   81  A    between atoms: _189  and  _190
REMARK   82  A    between atoms: _195  and  _196
REMARK   83  A    between atoms: _198  and  _200
REMARK   84  A    between atoms: _200  and  _201
REMARK   85  A    between atoms: _200  and  _203
REMARK   86  A    between atoms: _203  and  _204
REMARK   87  A    between atoms: _207  and  _209
REMARK   88  A    between atoms: _209  and  _210
REMARK   89  A    between atoms: _209  and  _212
REMARK   90  A    between atoms: _212  and  _213
REMARK   91  A    between atoms: _215  and  _217
REMARK   92  A    between atoms: _217  and  _218
REMARK   93  A    between atoms: _217  and  _220
REMARK   94  A    between atoms: _220  and  _221
REMARK   95  A    between atoms: _226  and  _228
REMARK   96  A    between atoms: _228  and  _229
REMARK   97  A    between atoms: _228  and  _231
REMARK   98  A    between atoms: _231  and  _232
REMARK   99  A    between atoms: _235  and  _237
REMARK  100  A    between atoms: _237  and  _238
REMARK  101  A    between atoms: _237  and  _240
REMARK  102  A    between atoms: _240  and  _241
REMARK  103  A    between atoms: _252  and  _253
REMARK  104  A    between atoms: _258  and  _260
REMARK  105  A    between atoms: _260  and  _261
REMARK  106  A    between atoms: _260  and  _263
REMARK  107  A    between atoms: _263  and  _264
REMARK  108  A    between atoms: _267  and  _269
REMARK  109  A    between atoms: _269  and  _270
REMARK  110  A    between atoms: _269  and  _272
REMARK  111  A    between atoms: _272  and  _273
REMARK  112  A    between atoms: _278  and  _280
REMARK  113  A    between atoms: _280  and  _281
REMARK  114  A    between atoms: _283  and  _285
REMARK  115  A    between atoms: _285  and  _286
REMARK  116  A    between atoms: _285  and  _288
REMARK  117  A    between atoms: _288  and  _289
REMARK  118  A    between atoms: _299  and  _301
REMARK  119  A    between atoms: _301  and  _302
REMARK  120  A    between atoms: _301  and  _304
REMARK  121  A    between atoms: _304  and  _305
REMARK  122  A    between atoms: _310  and  _311
REMARK  123  A    between atoms: _313  and  _315
REMARK  124  A    between atoms: _315  and  _316
REMARK  125  A    between atoms: _315  and  _318
REMARK  126  A    between atoms: _318  and  _319
REMARK  127  A    between atoms: _322  and  _324
REMARK  128  A    between atoms: _324  and  _325
REMARK  129  A    between atoms: _324  and  _327
REMARK  130  A    between atoms: _327  and  _328
REMARK  131  A    between atoms: _333  and  _335
REMARK  132  A    between atoms: _335  and  _336
REMARK  133  A    between atoms: _335  and  _338
REMARK  134  A    between atoms: _338  and  _339
REMARK  135  A    between atoms: _344  and  _346
REMARK  136  A    between atoms: _346  and  _347
REMARK  137  A    between atoms: _346  and  _349
REMARK  138  A    between atoms: _349  and  _350
REMARK  139  A    between atoms: _350  and  _351
REMARK  140  A    between atoms: _354  and  _356
REMARK  141  A    between atoms: _356  and  _357
REMARK  142  A    between atoms: _359  and  _361
REMARK  143  A    between atoms: _361  and  _362
REMARK  144  A    between atoms: _361  and  _364
REMARK  145  A    between atoms: _364  and  _365
REMARK  146  A    between atoms: _367  and  _369
REMARK  147  A    between atoms: _369  and  _370
REMARK  148  A    between atoms: _369  and  _372
REMARK  149  A    between atoms: _372  and  _373
REMARK  150  A    between atoms: _378  and  _379
REMARK  151  A    between atoms: _381  and  _383
REMARK  152  A    between atoms: _383  and  _384
REMARK  153  A    between atoms: _383  and  _386
REMARK  154  A    between atoms: _386  and  _387
REMARK  155  A    between atoms: _392  and  _394
REMARK  156  A    between atoms: _394  and  _395
REMARK  157  A    between atoms: _397  and  _399
REMARK  158  A    between atoms: _399  and  _400
REMARK  159  A    between atoms: _399  and  _402
REMARK  160  A    between atoms: _402  and  _403
REMARK  161  A    between atoms: _408  and  _410
REMARK  162  A    between atoms: _410  and  _411
REMARK  163  A    between atoms: _410  and  _413
REMARK  164  A    between atoms: _413  and  _414
REMARK  165  A    between atoms: _424  and  _426
REMARK  166  A    between atoms: _426  and  _427
REMARK  167  A    between atoms: _426  and  _429
REMARK  168  A    between atoms: _429  and  _430
REMARK  169  A    between atoms: _435  and  _437
REMARK  170  A    between atoms: _437  and  _438
REMARK  171  A    between atoms: _437  and  _440
REMARK  172  A    between atoms: _440  and  _441
REMARK  173  A    between atoms: _441  and  _442
REMARK  174  A    between atoms: _442  and  _443
REMARK  175  A    between atoms: _443  and  _444
REMARK  176  A    between atoms: _448  and  _450
REMARK  177  A    between atoms: _450  and  _451
REMARK  178  A    between atoms: _450  and  _453
REMARK  179  A    between atoms: _453  and  _454
REMARK  180  A    between atoms: _460  and  _462
REMARK  181  A    between atoms: _462  and  _463
REMARK  182  A    between atoms: _465  and  _467
REMARK  183  A    between atoms: _467  and  _468
REMARK  184  A    between atoms: _467  and  _470
REMARK  185  A    between atoms: _470  and  _471
REMARK  186  A    between atoms: _473  and  _475
REMARK  187  A    between atoms: _475  and  _476
REMARK  188  A    between atoms: _475  and  _478
REMARK  189  A    between atoms: _478  and  _479
REMARK  190  A    between atoms: _479  and  _480
REMARK  191  A    between atoms: _480  and  _481
REMARK  192  A    between atoms: _481  and  _482
REMARK  193  A    between atoms: _486  and  _488
REMARK  194  A    between atoms: _488  and  _489
REMARK  195  A    between atoms: _488  and  _491
REMARK  196  A    between atoms: _491  and  _492
REMARK  197  A    between atoms: _497  and  _499
REMARK  198  A    between atoms: _499  and  _500
REMARK  199  A    between atoms: _499  and  _502
REMARK  200  A    between atoms: _502  and  _503
REMARK  201  A    between atoms: _503  and  _504
REMARK  202  A    between atoms: _504  and  _505
REMARK  203  A    between atoms: _514  and  _516
REMARK  204  A    between atoms: _516  and  _517
REMARK  205  A    between atoms: _516  and  _519
REMARK  206  A    between atoms: _519  and  _520
REMARK  207  A    between atoms: _520  and  _521
REMARK  208  A    between atoms: _526  and  _528
REMARK  209  A    between atoms: _528  and  _529
REMARK  210  A    between atoms: _528  and  _531
REMARK  211  A    between atoms: _531  and  _532
REMARK  212  A    between atoms: _532  and  _533
REMARK  213  A    between atoms: _538  and  _540
REMARK  214  A    between atoms: _540  and  _541
REMARK  215  A    between atoms: _540  and  _543
REMARK  216  A    between atoms: _543  and  _544
REMARK  217  A    between atoms: _544  and  _545
REMARK  218  A    between atoms: _547  and  _549
REMARK  219  A    between atoms: _549  and  _550
REMARK  220  A    between atoms: _549  and  _552
REMARK  221  A    between atoms: _552  and  _553
REMARK  222  A    between atoms: _555  and  _557
REMARK  223  A    between atoms: _557  and  _558
REMARK  224  A    between atoms: _557  and  _560
REMARK  225  A    between atoms: _560  and  _561
REMARK  226  A    between atoms: _566  and  _567
REMARK  227  A    between atoms: _569  and  _571
REMARK  228  A    between atoms: _571  and  _572
REMARK  229  A    between atoms: _571  and  _574
REMARK  230  A    between atoms: _574  and  _575
REMARK  231  A    between atoms: _585  and  _587
REMARK  232  A    between atoms: _587  and  _588
REMARK  233  A    between atoms: _587  and  _590
REMARK  234  A    between atoms: _590  and  _591
REMARK  235  A    between atoms: _594  and  _596
REMARK  236  A    between atoms: _596  and  _597
REMARK  237  A    between atoms: _600  and  _602
REMARK  238  A    between atoms: _602  and  _603
REMARK  239  A    between atoms: _602  and  _605
REMARK  240  A    between atoms: _605  and  _606
REMARK                            x       y       z     vdW  Elec       q    Type
REMARK                         _______ _______ _______ _____ _____    ______ ____
ROOT
ATOM      1  O   HOH     1     -34.000   4.095  -6.912  0.00  0.00    +0.000 OA
ENDROOT
TORSDOF 0
REMARK  Name = ../refined-set-2016/4ua8/4ua8_pocket.pdb
REMARK  240 active torsions:
REMARK  status: ('A' for Active; 'I' for Inactive)
REMARK    1  A    between atoms: _1  and  _3
REMARK    2  A    between atoms: _3  and  _4
REMARK    3  A    between atoms: _7  and  _8
REMARK    4  A    between atoms: _13  and  _15
REMARK    5  A    between atoms: _15  and  _16
REMARK    6  A    between atoms: _19  and  _21
REMARK    7  A    between atoms: _21  and  _22
REMARK    8  A    between atoms: _21  and  _24
REMARK    9  A    between atoms: _24  and  _25
REMARK   10  A    between atoms: _25  and  _26
REMARK   11  A    between atoms: _29  and  _31
REMARK   12  A    between atoms: _31  and  _32
REMARK   13  A    between atoms: _31  and  _34
REMARK   14  A    between atoms: _34  and  _35
REMARK   15  A    between atoms: _38  and  _40
REMARK   16  A    between atoms: _40  and  _41
REMARK   17  A    between atoms: _40  and  _43
REMARK   18  A    between atoms: _43  and  _44
REMARK   19  A    between atoms: _46  and  _48
REMARK   20  A    between atoms: _48  and  _49
REMARK   21  A    between atoms: _48  and  _51
REMARK   22  A    between atoms: _51  and  _52
REMARK   23  A    between atoms: _54  and  _56
REMARK   24  A    between atoms: _56  and  _57
REMARK   25  A    between atoms: _56  and  _59
REMARK   26  A    between atoms: _59  and  _60
REMARK   27  A    between atoms: _60  and  _61
REMARK   28  A    between atoms: _64  and  _66
REMARK   29  A    between atoms: _66  and  _67
REMARK   30  A    between atoms: _66  and  _69
REMARK   31  A    between atoms: _69  and  _70
REMARK   32  A    between atoms: _72  and  _74
REMARK   33  A    between atoms: _74  and  _75
REMARK   34  A    between atoms: _74  and  _77
REMARK   35  A    between atoms: _77  and  _78
REMARK   36  A    between atoms: _81  and  _83
REMARK   37  A    between atoms: _83  and  _84
REMARK   38  A    between atoms: _87  and  _89
REMARK   39  A    between atoms: _89  and  _90
REMARK   40  A    between atoms: _89  and  _92
REMARK   41  A    between atoms: _92  and  _93
REMARK   42  A    between atoms: _93  and  _94
REMARK   43  A    between atoms: _94  and  _95
REMARK   44  A    between atoms: _95  and  _96
REMARK   45  A    between atoms: _100  and  _102
REMARK   46  A    between atoms: _102  and  _103
REMARK   47  A    between atoms: _102  and  _105
REMARK   48  A    between atoms: _105  and  _106
REMARK   49  A    between atoms: _109  and  _111
REMARK   50  A    between atoms: _111  and  _112
REMARK   51  A    between atoms: _111  and  _114
REMARK   52  A    between atoms: _114  and  _115
REMARK   53  A    between atoms: _115  and  _116
REMARK   54  A    between atoms: _118  and  _120
REMARK   55  A    between atoms: _120  and  _121
REMARK   56  A    between atoms: _120  and  _123
REMARK   57  A    between atoms: _123  and  _124
REMARK   58  A    between atoms: _130  and  _132
REMARK   59  A    between atoms: _132  and  _133
REMARK   60  A    between atoms: _136  and  _138
REMARK   61  A    between atoms: _138  and  _139
REMARK   62  A    between atoms: _138  and  _141
REMARK   63  A    between atoms: _141  and  _142
REMARK   64  A    between atoms: _147  and  _149
REMARK   65  A    between atoms: _149  and  _150
REMARK   66  A    between atoms: _149  and  _152
REMARK   67  A    between atoms: _152  and  _153
REMARK   68  A    between atoms: _156  and  _158
REMARK   69  A    between atoms: _158  and  _159
REMARK   70  A    between atoms: _158  and  _161
REMARK   71  A    between atoms: _161  and  _162
REMARK   72  A    between atoms: _162  and  _163
REMARK   73  A    between atoms: _168  and  _170
REMARK   74  A    between atoms: _170  and  _171
REMARK   75  A    between atoms: _170  and  _173
REMARK   76  A    between atoms: _173  and  _174
REMARK   77  A    between atoms: _178  and  _179
REMARK   78  A    between atoms: _184  and  _186
REMARK   79  A    between atoms: _186  and  _187
REMARK   80  A    between atoms: _186  and  _189
REMARK   81  A    between atoms: _189  and  _190
REMARK   82  A    between atoms: _195  and  _196
REMARK   83  A    between atoms: _198  and  _200
REMARK   84  A    between atoms: _200  and  _201
REMARK   85  A    between atoms: _200  and  _203
REMARK   86  A    between atoms: _203  and  _204
REMARK   87  A    between atoms: _207  and  _209
REMARK   88  A    between atoms: _209  and  _210
REMARK   89  A    between atoms: _209  and  _212
REMARK   90  A    between atoms: _212  and  _213
REMARK   91  A    between atoms: _215  and  _217
REMARK   92  A    between atoms: _217  and  _218
REMARK   93  A    between atoms: _217  and  _220
REMARK   94  A    between atoms: _220  and  _221
REMARK   95  A    between atoms: _226  and  _228
REMARK   96  A    between atoms: _228  and  _229
REMARK   97  A    between atoms: _228  and  _231
REMARK   98  A    between atoms: _231  and  _232
REMARK   99  A    between atoms: _235  and  _237
REMARK  100  A    between atoms: _237  and  _238
REMARK  101  A    between atoms: _237  and  _240
REMARK  102  A    between atoms: _240  and  _241
REMARK  103  A    between atoms: _252  and  _253
REMARK  104  A    between atoms: _258  and  _260
REMARK  105  A    between atoms: _260  and  _261
REMARK  106  A    between atoms: _260  and  _263
REMARK  107  A    between atoms: _263  and  _264
REMARK  108  A    between atoms: _267  and  _269
REMARK  109  A    between atoms: _269  and  _270
REMARK  110  A    between atoms: _269  and  _272
REMARK  111  A    between atoms: _272  and  _273
REMARK  112  A    between atoms: _278  and  _280
REMARK  113  A    between atoms: _280  and  _281
REMARK  114  A    between atoms: _283  and  _285
REMARK  115  A    between atoms: _285  and  _286
REMARK  116  A    between atoms: _285  and  _288
REMARK  117  A    between atoms: _288  and  _289
REMARK  118  A    between atoms: _299  and  _301
REMARK  119  A    between atoms: _301  and  _302
REMARK  120  A    between atoms: _301  and  _304
REMARK  121  A    between atoms: _304  and  _305
REMARK  122  A    between atoms: _310  and  _311
REMARK  123  A    between atoms: _313  and  _315
REMARK  124  A    between atoms: _315  and  _316
REMARK  125  A    between atoms: _315  and  _318
REMARK  126  A    between atoms: _318  and  _319
REMARK  127  A    between atoms: _322  and  _324
REMARK  128  A    between atoms: _324  and  _325
REMARK  129  A    between atoms: _324  and  _327
REMARK  130  A    between atoms: _327  and  _328
REMARK  131  A    between atoms: _333  and  _335
REMARK  132  A    between atoms: _335  and  _336
REMARK  133  A    between atoms: _335  and  _338
REMARK  134  A    between atoms: _338  and  _339
REMARK  135  A    between atoms: _344  and  _346
REMARK  136  A    between atoms: _346  and  _347
REMARK  137  A    between atoms: _346  and  _349
REMARK  138  A    between atoms: _349  and  _350
REMARK  139  A    between atoms: _350  and  _351
REMARK  140  A    between atoms: _354  and  _356
REMARK  141  A    between atoms: _356  and  _357
REMARK  142  A    between atoms: _359  and  _361
REMARK  143  A    between atoms: _361  and  _362
REMARK  144  A    between atoms: _361  and  _364
REMARK  145  A    between atoms: _364  and  _365
REMARK  146  A    between atoms: _367  and  _369
REMARK  147  A    between atoms: _369  and  _370
REMARK  148  A    between atoms: _369  and  _372
REMARK  149  A    between atoms: _372  and  _373
REMARK  150  A    between atoms: _378  and  _379
REMARK  151  A    between atoms: _381  and  _383
REMARK  152  A    between atoms: _383  and  _384
REMARK  153  A    between atoms: _383  and  _386
REMARK  154  A    between atoms: _386  and  _387
REMARK  155  A    between atoms: _392  and  _394
REMARK  156  A    between atoms: _394  and  _395
REMARK  157  A    between atoms: _397  and  _399
REMARK  158  A    between atoms: _399  and  _400
REMARK  159  A    between atoms: _399  and  _402
REMARK  160  A    between atoms: _402  and  _403
REMARK  161  A    between atoms: _408  and  _410
REMARK  162  A    between atoms: _410  and  _411
REMARK  163  A    between atoms: _410  and  _413
REMARK  164  A    between atoms: _413  and  _414
REMARK  165  A    between atoms: _424  and  _426
REMARK  166  A    between atoms: _426  and  _427
REMARK  167  A    between atoms: _426  and  _429
REMARK  168  A    between atoms: _429  and  _430
REMARK  169  A    between atoms: _435  and  _437
REMARK  170  A    between atoms: _437  and  _438
REMARK  171  A    between atoms: _437  and  _440
REMARK  172  A    between atoms: _440  and  _441
REMARK  173  A    between atoms: _441  and  _442
REMARK  174  A    between atoms: _442  and  _443
REMARK  175  A    between atoms: _443  and  _444
REMARK  176  A    between atoms: _448  and  _450
REMARK  177  A    between atoms: _450  and  _451
REMARK  178  A    between atoms: _450  and  _453
REMARK  179  A    between atoms: _453  and  _454
REMARK  180  A    between atoms: _460  and  _462
REMARK  181  A    between atoms: _462  and  _463
REMARK  182  A    between atoms: _465  and  _467
REMARK  183  A    between atoms: _467  and  _468
REMARK  184  A    between atoms: _467  and  _470
REMARK  185  A    between atoms: _470  and  _471
REMARK  186  A    between atoms: _473  and  _475
REMARK  187  A    between atoms: _475  and  _476
REMARK  188  A    between atoms: _475  and  _478
REMARK  189  A    between atoms: _478  and  _479
REMARK  190  A    between atoms: _479  and  _480
REMARK  191  A    between atoms: _480  and  _481
REMARK  192  A    between atoms: _481  and  _482
REMARK  193  A    between atoms: _486  and  _488
REMARK  194  A    between atoms: _488  and  _489
REMARK  195  A    between atoms: _488  and  _491
REMARK  196  A    between atoms: _491  and  _492
REMARK  197  A    between atoms: _497  and  _499
REMARK  198  A    between atoms: _499  and  _500
REMARK  199  A    between atoms: _499  and  _502
REMARK  200  A    between atoms: _502  and  _503
REMARK  201  A    between atoms: _503  and  _504
REMARK  202  A    between atoms: _504  and  _505
REMARK  203  A    between atoms: _514  and  _516
REMARK  204  A    between atoms: _516  and  _517
REMARK  205  A    between atoms: _516  and  _519
REMARK  206  A    between atoms: _519  and  _520
REMARK  207  A    between atoms: _520  and  _521
REMARK  208  A    between atoms: _526  and  _528
REMARK  209  A    between atoms: _528  and  _529
REMARK  210  A    between atoms: _528  and  _531
REMARK  211  A    between atoms: _531  and  _532
REMARK  212  A    between atoms: _532  and  _533
REMARK  213  A    between atoms: _538  and  _540
REMARK  214  A    between atoms: _540  and  _541
REMARK  215  A    between atoms: _540  and  _543
REMARK  216  A    between atoms: _543  and  _544
REMARK  217  A    between atoms: _544  and  _545
REMARK  218  A    between atoms: _547  and  _549
REMARK  219  A    between atoms: _549  and  _550
REMARK  220  A    between atoms: _549  and  _552
REMARK  221  A    between atoms: _552  and  _553
REMARK  222  A    between atoms: _555  and  _557
REMARK  223  A    between atoms: _557  and  _558
REMARK  224  A    between atoms: _557  and  _560
REMARK  225  A    between atoms: _560  and  _561
REMARK  226  A    between atoms: _566  and  _567
REMARK  227  A    between atoms: _569  and  _571
REMARK  228  A    between atoms: _571  and  _572
REMARK  229  A    between atoms: _571  and  _574
REMARK  230  A    between atoms: _574  and  _575
REMARK  231  A    between atoms: _585  and  _587
REMARK  232  A    between atoms: _587  and  _588
REMARK  233  A    between atoms: _587  and  _590
REMARK  234  A    between atoms: _590  and  _591
REMARK  235  A    between atoms: _594  and  _596
REMARK  236  A    between atoms: _596  and  _597
REMARK  237  A    between atoms: _600  and  _602
REMARK  238  A    between atoms: _602  and  _603
REMARK  239  A    between atoms: _602  and  _605
REMARK  240  A    between atoms: _605  and  _606
REMARK                            x       y       z     vdW  Elec       q    Type
REMARK                         _______ _______ _______ _____ _____    ______ ____
ROOT
ATOM      1  O   HOH     1     -35.477   6.099  -9.424  0.00  0.00    +0.000 OA
ENDROOT
TORSDOF 0
REMARK  Name = ../refined-set-2016/4ua8/4ua8_pocket.pdb
REMARK  240 active torsions:
REMARK  status: ('A' for Active; 'I' for Inactive)
REMARK    1  A    between atoms: _1  and  _3
REMARK    2  A    between atoms: _3  and  _4
REMARK    3  A    between atoms: _7  and  _8
REMARK    4  A    between atoms: _13  and  _15
REMARK    5  A    between atoms: _15  and  _16
REMARK    6  A    between atoms: _19  and  _21
REMARK    7  A    between atoms: _21  and  _22
REMARK    8  A    between atoms: _21  and  _24
REMARK    9  A    between atoms: _24  and  _25
REMARK   10  A    between atoms: _25  and  _26
REMARK   11  A    between atoms: _29  and  _31
REMARK   12  A    between atoms: _31  and  _32
REMARK   13  A    between atoms: _31  and  _34
REMARK   14  A    between atoms: _34  and  _35
REMARK   15  A    between atoms: _38  and  _40
REMARK   16  A    between atoms: _40  and  _41
REMARK   17  A    between atoms: _40  and  _43
REMARK   18  A    between atoms: _43  and  _44
REMARK   19  A    between atoms: _46  and  _48
REMARK   20  A    between atoms: _48  and  _49
REMARK   21  A    between atoms: _48  and  _51
REMARK   22  A    between atoms: _51  and  _52
REMARK   23  A    between atoms: _54  and  _56
REMARK   24  A    between atoms: _56  and  _57
REMARK   25  A    between atoms: _56  and  _59
REMARK   26  A    between atoms: _59  and  _60
REMARK   27  A    between atoms: _60  and  _61
REMARK   28  A    between atoms: _64  and  _66
REMARK   29  A    between atoms: _66  and  _67
REMARK   30  A    between atoms: _66  and  _69
REMARK   31  A    between atoms: _69  and  _70
REMARK   32  A    between atoms: _72  and  _74
REMARK   33  A    between atoms: _74  and  _75
REMARK   34  A    between atoms: _74  and  _77
REMARK   35  A    between atoms: _77  and  _78
REMARK   36  A    between atoms: _81  and  _83
REMARK   37  A    between atoms: _83  and  _84
REMARK   38  A    between atoms: _87  and  _89
REMARK   39  A    between atoms: _89  and  _90
REMARK   40  A    between atoms: _89  and  _92
REMARK   41  A    between atoms: _92  and  _93
REMARK   42  A    between atoms: _93  and  _94
REMARK   43  A    between atoms: _94  and  _95
REMARK   44  A    between atoms: _95  and  _96
REMARK   45  A    between atoms: _100  and  _102
REMARK   46  A    between atoms: _102  and  _103
REMARK   47  A    between atoms: _102  and  _105
REMARK   48  A    between atoms: _105  and  _106
REMARK   49  A    between atoms: _109  and  _111
REMARK   50  A    between atoms: _111  and  _112
REMARK   51  A    between atoms: _111  and  _114
REMARK   52  A    between atoms: _114  and  _115
REMARK   53  A    between atoms: _115  and  _116
REMARK   54  A    between atoms: _118  and  _120
REMARK   55  A    between atoms: _120  and  _121
REMARK   56  A    between atoms: _120  and  _123
REMARK   57  A    between atoms: _123  and  _124
REMARK   58  A    between atoms: _130  and  _132
REMARK   59  A    between atoms: _132  and  _133
REMARK   60  A    between atoms: _136  and  _138
REMARK   61  A    between atoms: _138  and  _139
REMARK   62  A    between atoms: _138  and  _141
REMARK   63  A    between atoms: _141  and  _142
REMARK   64  A    between atoms: _147  and  _149
REMARK   65  A    between atoms: _149  and  _150
REMARK   66  A    between atoms: _149  and  _152
REMARK   67  A    between atoms: _152  and  _153
REMARK   68  A    between atoms: _156  and  _158
REMARK   69  A    between atoms: _158  and  _159
REMARK   70  A    between atoms: _158  and  _161
REMARK   71  A    between atoms: _161  and  _162
REMARK   72  A    between atoms: _162  and  _163
REMARK   73  A    between atoms: _168  and  _170
REMARK   74  A    between atoms: _170  and  _171
REMARK   75  A    between atoms: _170  and  _173
REMARK   76  A    between atoms: _173  and  _174
REMARK   77  A    between atoms: _178  and  _179
REMARK   78  A    between atoms: _184  and  _186
REMARK   79  A    between atoms: _186  and  _187
REMARK   80  A    between atoms: _186  and  _189
REMARK   81  A    between atoms: _189  and  _190
REMARK   82  A    between atoms: _195  and  _196
REMARK   83  A    between atoms: _198  and  _200
REMARK   84  A    between atoms: _200  and  _201
REMARK   85  A    between atoms: _200  and  _203
REMARK   86  A    between atoms: _203  and  _204
REMARK   87  A    between atoms: _207  and  _209
REMARK   88  A    between atoms: _209  and  _210
REMARK   89  A    between atoms: _209  and  _212
REMARK   90  A    between atoms: _212  and  _213
REMARK   91  A    between atoms: _215  and  _217
REMARK   92  A    between atoms: _217  and  _218
REMARK   93  A    between atoms: _217  and  _220
REMARK   94  A    between atoms: _220  and  _221
REMARK   95  A    between atoms: _226  and  _228
REMARK   96  A    between atoms: _228  and  _229
REMARK   97  A    between atoms: _228  and  _231
REMARK   98  A    between atoms: _231  and  _232
REMARK   99  A    between atoms: _235  and  _237
REMARK  100  A    between atoms: _237  and  _238
REMARK  101  A    between atoms: _237  and  _240
REMARK  102  A    between atoms: _240  and  _241
REMARK  103  A    between atoms: _252  and  _253
REMARK  104  A    between atoms: _258  and  _260
REMARK  105  A    between atoms: _260  and  _261
REMARK  106  A    between atoms: _260  and  _263
REMARK  107  A    between atoms: _263  and  _264
REMARK  108  A    between atoms: _267  and  _269
REMARK  109  A    between atoms: _269  and  _270
REMARK  110  A    between atoms: _269  and  _272
REMARK  111  A    between atoms: _272  and  _273
REMARK  112  A    between atoms: _278  and  _280
REMARK  113  A    between atoms: _280  and  _281
REMARK  114  A    between atoms: _283  and  _285
REMARK  115  A    between atoms: _285  and  _286
REMARK  116  A    between atoms: _285  and  _288
REMARK  117  A    between atoms: _288  and  _289
REMARK  118  A    between atoms: _299  and  _301
REMARK  119  A    between atoms: _301  and  _302
REMARK  120  A    between atoms: _301  and  _304
REMARK  121  A    between atoms: _304  and  _305
REMARK  122  A    between atoms: _310  and  _311
REMARK  123  A    between atoms: _313  and  _315
REMARK  124  A    between atoms: _315  and  _316
REMARK  125  A    between atoms: _315  and  _318
REMARK  126  A    between atoms: _318  and  _319
REMARK  127  A    between atoms: _322  and  _324
REMARK  128  A    between atoms: _324  and  _325
REMARK  129  A    between atoms: _324  and  _327
REMARK  130  A    between atoms: _327  and  _328
REMARK  131  A    between atoms: _333  and  _335
REMARK  132  A    between atoms: _335  and  _336
REMARK  133  A    between atoms: _335  and  _338
REMARK  134  A    between atoms: _338  and  _339
REMARK  135  A    between atoms: _344  and  _346
REMARK  136  A    between atoms: _346  and  _347
REMARK  137  A    between atoms: _346  and  _349
REMARK  138  A    between atoms: _349  and  _350
REMARK  139  A    between atoms: _350  and  _351
REMARK  140  A    between atoms: _354  and  _356
REMARK  141  A    between atoms: _356  and  _357
REMARK  142  A    between atoms: _359  and  _361
REMARK  143  A    between atoms: _361  and  _362
REMARK  144  A    between atoms: _361  and  _364
REMARK  145  A    between atoms: _364  and  _365
REMARK  146  A    between atoms: _367  and  _369
REMARK  147  A    between atoms: _369  and  _370
REMARK  148  A    between atoms: _369  and  _372
REMARK  149  A    between atoms: _372  and  _373
REMARK  150  A    between atoms: _378  and  _379
REMARK  151  A    between atoms: _381  and  _383
REMARK  152  A    between atoms: _383  and  _384
REMARK  153  A    between atoms: _383  and  _386
REMARK  154  A    between atoms: _386  and  _387
REMARK  155  A    between atoms: _392  and  _394
REMARK  156  A    between atoms: _394  and  _395
REMARK  157  A    between atoms: _397  and  _399
REMARK  158  A    between atoms: _399  and  _400
REMARK  159  A    between atoms: _399  and  _402
REMARK  160  A    between atoms: _402  and  _403
REMARK  161  A    between atoms: _408  and  _410
REMARK  162  A    between atoms: _410  and  _411
REMARK  163  A    between atoms: _410  and  _413
REMARK  164  A    between atoms: _413  and  _414
REMARK  165  A    between atoms: _424  and  _426
REMARK  166  A    between atoms: _426  and  _427
REMARK  167  A    between atoms: _426  and  _429
REMARK  168  A    between atoms: _429  and  _430
REMARK  169  A    between atoms: _435  and  _437
REMARK  170  A    between atoms: _437  and  _438
REMARK  171  A    between atoms: _437  and  _440
REMARK  172  A    between atoms: _440  and  _441
REMARK  173  A    between atoms: _441  and  _442
REMARK  174  A    between atoms: _442  and  _443
REMARK  175  A    between atoms: _443  and  _444
REMARK  176  A    between atoms: _448  and  _450
REMARK  177  A    between atoms: _450  and  _451
REMARK  178  A    between atoms: _450  and  _453
REMARK  179  A    between atoms: _453  and  _454
REMARK  180  A    between atoms: _460  and  _462
REMARK  181  A    between atoms: _462  and  _463
REMARK  182  A    between atoms: _465  and  _467
REMARK  183  A    between atoms: _467  and  _468
REMARK  184  A    between atoms: _467  and  _470
REMARK  185  A    between atoms: _470  and  _471
REMARK  186  A    between atoms: _473  and  _475
REMARK  187  A    between atoms: _475  and  _476
REMARK  188  A    between atoms: _475  and  _478
REMARK  189  A    between atoms: _478  and  _479
REMARK  190  A    between atoms: _479  and  _480
REMARK  191  A    between atoms: _480  and  _481
REMARK  192  A    between atoms: _481  and  _482
REMARK  193  A    between atoms: _486  and  _488
REMARK  194  A    between atoms: _488  and  _489
REMARK  195  A    between atoms: _488  and  _491
REMARK  196  A    between atoms: _491  and  _492
REMARK  197  A    between atoms: _497  and  _499
REMARK  198  A    between atoms: _499  and  _500
REMARK  199  A    between atoms: _499  and  _502
REMARK  200  A    between atoms: _502  and  _503
REMARK  201  A    between atoms: _503  and  _504
REMARK  202  A    between atoms: _504  and  _505
REMARK  203  A    between atoms: _514  and  _516
REMARK  204  A    between atoms: _516  and  _517
REMARK  205  A    between atoms: _516  and  _519
REMARK  206  A    between atoms: _519  and  _520
REMARK  207  A    between atoms: _520  and  _521
REMARK  208  A    between atoms: _526  and  _528
REMARK  209  A    between atoms: _528  and  _529
REMARK  210  A    between atoms: _528  and  _531
REMARK  211  A    between atoms: _531  and  _532
REMARK  212  A    between atoms: _532  and  _533
REMARK  213  A    between atoms: _538  and  _540
REMARK  214  A    between atoms: _540  and  _541
REMARK  215  A    between atoms: _540  and  _543
REMARK  216  A    between atoms: _543  and  _544
REMARK  217  A    between atoms: _544  and  _545
REMARK  218  A    between atoms: _547  and  _549
REMARK  219  A    between atoms: _549  and  _550
REMARK  220  A    between atoms: _549  and  _552
REMARK  221  A    between atoms: _552  and  _553
REMARK  222  A    between atoms: _555  and  _557
REMARK  223  A    between atoms: _557  and  _558
REMARK  224  A    between atoms: _557  and  _560
REMARK  225  A    between atoms: _560  and  _561
REMARK  226  A    between atoms: _566  and  _567
REMARK  227  A    between atoms: _569  and  _571
REMARK  228  A    between atoms: _571  and  _572
REMARK  229  A    between atoms: _571  and  _574
REMARK  230  A    between atoms: _574  and  _575
REMARK  231  A    between atoms: _585  and  _587
REMARK  232  A    between atoms: _587  and  _588
REMARK  233  A    between atoms: _587  and  _590
REMARK  234  A    between atoms: _590  and  _591
REMARK  235  A    between atoms: _594  and  _596
REMARK  236  A    between atoms: _596  and  _597
REMARK  237  A    between atoms: _600  and  _602
REMARK  238  A    between atoms: _602  and  _603
REMARK  239  A    between atoms: _602  and  _605
REMARK  240  A    between atoms: _605  and  _606
REMARK                            x       y       z     vdW  Elec       q    Type
REMARK                         _______ _______ _______ _____ _____    ______ ____
ROOT
ATOM      1  O   HOH     1     -22.390   5.208 -10.685  0.00  0.00    +0.000 OA
ENDROOT
TORSDOF 0
REMARK  Name = ../refined-set-2016/4ua8/4ua8_pocket.pdb
REMARK  240 active torsions:
REMARK  status: ('A' for Active; 'I' for Inactive)
REMARK    1  A    between atoms: _1  and  _3
REMARK    2  A    between atoms: _3  and  _4
REMARK    3  A    between atoms: _7  and  _8
REMARK    4  A    between atoms: _13  and  _15
REMARK    5  A    between atoms: _15  and  _16
REMARK    6  A    between atoms: _19  and  _21
REMARK    7  A    between atoms: _21  and  _22
REMARK    8  A    between atoms: _21  and  _24
REMARK    9  A    between atoms: _24  and  _25
REMARK   10  A    between atoms: _25  and  _26
REMARK   11  A    between atoms: _29  and  _31
REMARK   12  A    between atoms: _31  and  _32
REMARK   13  A    between atoms: _31  and  _34
REMARK   14  A    between atoms: _34  and  _35
REMARK   15  A    between atoms: _38  and  _40
REMARK   16  A    between atoms: _40  and  _41
REMARK   17  A    between atoms: _40  and  _43
REMARK   18  A    between atoms: _43  and  _44
REMARK   19  A    between atoms: _46  and  _48
REMARK   20  A    between atoms: _48  and  _49
REMARK   21  A    between atoms: _48  and  _51
REMARK   22  A    between atoms: _51  and  _52
REMARK   23  A    between atoms: _54  and  _56
REMARK   24  A    between atoms: _56  and  _57
REMARK   25  A    between atoms: _56  and  _59
REMARK   26  A    between atoms: _59  and  _60
REMARK   27  A    between atoms: _60  and  _61
REMARK   28  A    between atoms: _64  and  _66
REMARK   29  A    between atoms: _66  and  _67
REMARK   30  A    between atoms: _66  and  _69
REMARK   31  A    between atoms: _69  and  _70
REMARK   32  A    between atoms: _72  and  _74
REMARK   33  A    between atoms: _74  and  _75
REMARK   34  A    between atoms: _74  and  _77
REMARK   35  A    between atoms: _77  and  _78
REMARK   36  A    between atoms: _81  and  _83
REMARK   37  A    between atoms: _83  and  _84
REMARK   38  A    between atoms: _87  and  _89
REMARK   39  A    between atoms: _89  and  _90
REMARK   40  A    between atoms: _89  and  _92
REMARK   41  A    between atoms: _92  and  _93
REMARK   42  A    between atoms: _93  and  _94
REMARK   43  A    between atoms: _94  and  _95
REMARK   44  A    between atoms: _95  and  _96
REMARK   45  A    between atoms: _100  and  _102
REMARK   46  A    between atoms: _102  and  _103
REMARK   47  A    between atoms: _102  and  _105
REMARK   48  A    between atoms: _105  and  _106
REMARK   49  A    between atoms: _109  and  _111
REMARK   50  A    between atoms: _111  and  _112
REMARK   51  A    between atoms: _111  and  _114
REMARK   52  A    between atoms: _114  and  _115
REMARK   53  A    between atoms: _115  and  _116
REMARK   54  A    between atoms: _118  and  _120
REMARK   55  A    between atoms: _120  and  _121
REMARK   56  A    between atoms: _120  and  _123
REMARK   57  A    between atoms: _123  and  _124
REMARK   58  A    between atoms: _130  and  _132
REMARK   59  A    between atoms: _132  and  _133
REMARK   60  A    between atoms: _136  and  _138
REMARK   61  A    between atoms: _138  and  _139
REMARK   62  A    between atoms: _138  and  _141
REMARK   63  A    between atoms: _141  and  _142
REMARK   64  A    between atoms: _147  and  _149
REMARK   65  A    between atoms: _149  and  _150
REMARK   66  A    between atoms: _149  and  _152
REMARK   67  A    between atoms: _152  and  _153
REMARK   68  A    between atoms: _156  and  _158
REMARK   69  A    between atoms: _158  and  _159
REMARK   70  A    between atoms: _158  and  _161
REMARK   71  A    between atoms: _161  and  _162
REMARK   72  A    between atoms: _162  and  _163
REMARK   73  A    between atoms: _168  and  _170
REMARK   74  A    between atoms: _170  and  _171
REMARK   75  A    between atoms: _170  and  _173
REMARK   76  A    between atoms: _173  and  _174
REMARK   77  A    between atoms: _178  and  _179
REMARK   78  A    between atoms: _184  and  _186
REMARK   79  A    between atoms: _186  and  _187
REMARK   80  A    between atoms: _186  and  _189
REMARK   81  A    between atoms: _189  and  _190
REMARK   82  A    between atoms: _195  and  _196
REMARK   83  A    between atoms: _198  and  _200
REMARK   84  A    between atoms: _200  and  _201
REMARK   85  A    between atoms: _200  and  _203
REMARK   86  A    between atoms: _203  and  _204
REMARK   87  A    between atoms: _207  and  _209
REMARK   88  A    between atoms: _209  and  _210
REMARK   89  A    between atoms: _209  and  _212
REMARK   90  A    between atoms: _212  and  _213
REMARK   91  A    between atoms: _215  and  _217
REMARK   92  A    between atoms: _217  and  _218
REMARK   93  A    between atoms: _217  and  _220
REMARK   94  A    between atoms: _220  and  _221
REMARK   95  A    between atoms: _226  and  _228
REMARK   96  A    between atoms: _228  and  _229
REMARK   97  A    between atoms: _228  and  _231
REMARK   98  A    between atoms: _231  and  _232
REMARK   99  A    between atoms: _235  and  _237
REMARK  100  A    between atoms: _237  and  _238
REMARK  101  A    between atoms: _237  and  _240
REMARK  102  A    between atoms: _240  and  _241
REMARK  103  A    between atoms: _252  and  _253
REMARK  104  A    between atoms: _258  and  _260
REMARK  105  A    between atoms: _260  and  _261
REMARK  106  A    between atoms: _260  and  _263
REMARK  107  A    between atoms: _263  and  _264
REMARK  108  A    between atoms: _267  and  _269
REMARK  109  A    between atoms: _269  and  _270
REMARK  110  A    between atoms: _269  and  _272
REMARK  111  A    between atoms: _272  and  _273
REMARK  112  A    between atoms: _278  and  _280
REMARK  113  A    between atoms: _280  and  _281
REMARK  114  A    between atoms: _283  and  _285
REMARK  115  A    between atoms: _285  and  _286
REMARK  116  A    between atoms: _285  and  _288
REMARK  117  A    between atoms: _288  and  _289
REMARK  118  A    between atoms: _299  and  _301
REMARK  119  A    between atoms: _301  and  _302
REMARK  120  A    between atoms: _301  and  _304
REMARK  121  A    between atoms: _304  and  _305
REMARK  122  A    between atoms: _310  and  _311
REMARK  123  A    between atoms: _313  and  _315
REMARK  124  A    between atoms: _315  and  _316
REMARK  125  A    between atoms: _315  and  _318
REMARK  126  A    between atoms: _318  and  _319
REMARK  127  A    between atoms: _322  and  _324
REMARK  128  A    between atoms: _324  and  _325
REMARK  129  A    between atoms: _324  and  _327
REMARK  130  A    between atoms: _327  and  _328
REMARK  131  A    between atoms: _333  and  _335
REMARK  132  A    between atoms: _335  and  _336
REMARK  133  A    between atoms: _335  and  _338
REMARK  134  A    between atoms: _338  and  _339
REMARK  135  A    between atoms: _344  and  _346
REMARK  136  A    between atoms: _346  and  _347
REMARK  137  A    between atoms: _346  and  _349
REMARK  138  A    between atoms: _349  and  _350
REMARK  139  A    between atoms: _350  and  _351
REMARK  140  A    between atoms: _354  and  _356
REMARK  141  A    between atoms: _356  and  _357
REMARK  142  A    between atoms: _359  and  _361
REMARK  143  A    between atoms: _361  and  _362
REMARK  144  A    between atoms: _361  and  _364
REMARK  145  A    between atoms: _364  and  _365
REMARK  146  A    between atoms: _367  and  _369
REMARK  147  A    between atoms: _369  and  _370
REMARK  148  A    between atoms: _369  and  _372
REMARK  149  A    between atoms: _372  and  _373
REMARK  150  A    between atoms: _378  and  _379
REMARK  151  A    between atoms: _381  and  _383
REMARK  152  A    between atoms: _383  and  _384
REMARK  153  A    between atoms: _383  and  _386
REMARK  154  A    between atoms: _386  and  _387
REMARK  155  A    between atoms: _392  and  _394
REMARK  156  A    between atoms: _394  and  _395
REMARK  157  A    between atoms: _397  and  _399
REMARK  158  A    between atoms: _399  and  _400
REMARK  159  A    between atoms: _399  and  _402
REMARK  160  A    between atoms: _402  and  _403
REMARK  161  A    between atoms: _408  and  _410
REMARK  162  A    between atoms: _410  and  _411
REMARK  163  A    between atoms: _410  and  _413
REMARK  164  A    between atoms: _413  and  _414
REMARK  165  A    between atoms: _424  and  _426
REMARK  166  A    between atoms: _426  and  _427
REMARK  167  A    between atoms: _426  and  _429
REMARK  168  A    between atoms: _429  and  _430
REMARK  169  A    between atoms: _435  and  _437
REMARK  170  A    between atoms: _437  and  _438
REMARK  171  A    between atoms: _437  and  _440
REMARK  172  A    between atoms: _440  and  _441
REMARK  173  A    between atoms: _441  and  _442
REMARK  174  A    between atoms: _442  and  _443
REMARK  175  A    between atoms: _443  and  _444
REMARK  176  A    between atoms: _448  and  _450
REMARK  177  A    between atoms: _450  and  _451
REMARK  178  A    between atoms: _450  and  _453
REMARK  179  A    between atoms: _453  and  _454
REMARK  180  A    between atoms: _460  and  _462
REMARK  181  A    between atoms: _462  and  _463
REMARK  182  A    between atoms: _465  and  _467
REMARK  183  A    between atoms: _467  and  _468
REMARK  184  A    between atoms: _467  and  _470
REMARK  185  A    between atoms: _470  and  _471
REMARK  186  A    between atoms: _473  and  _475
REMARK  187  A    between atoms: _475  and  _476
REMARK  188  A    between atoms: _475  and  _478
REMARK  189  A    between atoms: _478  and  _479
REMARK  190  A    between atoms: _479  and  _480
REMARK  191  A    between atoms: _480  and  _481
REMARK  192  A    between atoms: _481  and  _482
REMARK  193  A    between atoms: _486  and  _488
REMARK  194  A    between atoms: _488  and  _489
REMARK  195  A    between atoms: _488  and  _491
REMARK  196  A    between atoms: _491  and  _492
REMARK  197  A    between atoms: _497  and  _499
REMARK  198  A    between atoms: _499  and  _500
REMARK  199  A    between atoms: _499  and  _502
REMARK  200  A    between atoms: _502  and  _503
REMARK  201  A    between atoms: _503  and  _504
REMARK  202  A    between atoms: _504  and  _505
REMARK  203  A    between atoms: _514  and  _516
REMARK  204  A    between atoms: _516  and  _517
REMARK  205  A    between atoms: _516  and  _519
REMARK  206  A    between atoms: _519  and  _520
REMARK  207  A    between atoms: _520  and  _521
REMARK  208  A    between atoms: _526  and  _528
REMARK  209  A    between atoms: _528  and  _529
REMARK  210  A    between atoms: _528  and  _531
REMARK  211  A    between atoms: _531  and  _532
REMARK  212  A    between atoms: _532  and  _533
REMARK  213  A    between atoms: _538  and  _540
REMARK  214  A    between atoms: _540  and  _541
REMARK  215  A    between atoms: _540  and  _543
REMARK  216  A    between atoms: _543  and  _544
REMARK  217  A    between atoms: _544  and  _545
REMARK  218  A    between atoms: _547  and  _549
REMARK  219  A    between atoms: _549  and  _550
REMARK  220  A    between atoms: _549  and  _552
REMARK  221  A    between atoms: _552  and  _553
REMARK  222  A    between atoms: _555  and  _557
REMARK  223  A    between atoms: _557  and  _558
REMARK  224  A    between atoms: _557  and  _560
REMARK  225  A    between atoms: _560  and  _561
REMARK  226  A    between atoms: _566  and  _567
REMARK  227  A    between atoms: _569  and  _571
REMARK  228  A    between atoms: _571  and  _572
REMARK  229  A    between atoms: _571  and  _574
REMARK  230  A    between atoms: _574  and  _575
REMARK  231  A    between atoms: _585  and  _587
REMARK  232  A    between atoms: _587  and  _588
REMARK  233  A    between atoms: _587  and  _590
REMARK  234  A    between atoms: _590  and  _591
REMARK  235  A    between atoms: _594  and  _596
REMARK  236  A    between atoms: _596  and  _597
REMARK  237  A    between atoms: _600  and  _602
REMARK  238  A    between atoms: _602  and  _603
REMARK  239  A    between atoms: _602  and  _605
REMARK  240  A    between atoms: _605  and  _606
REMARK                            x       y       z     vdW  Elec       q    Type
REMARK                         _______ _______ _______ _____ _____    ______ ____
ROOT
ATOM      1  O   HOH     1     -23.143  13.652  -9.065  0.00  0.00    +0.000 OA
ENDROOT
TORSDOF 0
REMARK  Name = ../refined-set-2016/4ua8/4ua8_pocket.pdb
REMARK  240 active torsions:
REMARK  status: ('A' for Active; 'I' for Inactive)
REMARK    1  A    between atoms: _1  and  _3
REMARK    2  A    between atoms: _3  and  _4
REMARK    3  A    between atoms: _7  and  _8
REMARK    4  A    between atoms: _13  and  _15
REMARK    5  A    between atoms: _15  and  _16
REMARK    6  A    between atoms: _19  and  _21
REMARK    7  A    between atoms: _21  and  _22
REMARK    8  A    between atoms: _21  and  _24
REMARK    9  A    between atoms: _24  and  _25
REMARK   10  A    between atoms: _25  and  _26
REMARK   11  A    between atoms: _29  and  _31
REMARK   12  A    between atoms: _31  and  _32
REMARK   13  A    between atoms: _31  and  _34
REMARK   14  A    between atoms: _34  and  _35
REMARK   15  A    between atoms: _38  and  _40
REMARK   16  A    between atoms: _40  and  _41
REMARK   17  A    between atoms: _40  and  _43
REMARK   18  A    between atoms: _43  and  _44
REMARK   19  A    between atoms: _46  and  _48
REMARK   20  A    between atoms: _48  and  _49
REMARK   21  A    between atoms: _48  and  _51
REMARK   22  A    between atoms: _51  and  _52
REMARK   23  A    between atoms: _54  and  _56
REMARK   24  A    between atoms: _56  and  _57
REMARK   25  A    between atoms: _56  and  _59
REMARK   26  A    between atoms: _59  and  _60
REMARK   27  A    between atoms: _60  and  _61
REMARK   28  A    between atoms: _64  and  _66
REMARK   29  A    between atoms: _66  and  _67
REMARK   30  A    between atoms: _66  and  _69
REMARK   31  A    between atoms: _69  and  _70
REMARK   32  A    between atoms: _72  and  _74
REMARK   33  A    between atoms: _74  and  _75
REMARK   34  A    between atoms: _74  and  _77
REMARK   35  A    between atoms: _77  and  _78
REMARK   36  A    between atoms: _81  and  _83
REMARK   37  A    between atoms: _83  and  _84
REMARK   38  A    between atoms: _87  and  _89
REMARK   39  A    between atoms: _89  and  _90
REMARK   40  A    between atoms: _89  and  _92
REMARK   41  A    between atoms: _92  and  _93
REMARK   42  A    between atoms: _93  and  _94
REMARK   43  A    between atoms: _94  and  _95
REMARK   44  A    between atoms: _95  and  _96
REMARK   45  A    between atoms: _100  and  _102
REMARK   46  A    between atoms: _102  and  _103
REMARK   47  A    between atoms: _102  and  _105
REMARK   48  A    between atoms: _105  and  _106
REMARK   49  A    between atoms: _109  and  _111
REMARK   50  A    between atoms: _111  and  _112
REMARK   51  A    between atoms: _111  and  _114
REMARK   52  A    between atoms: _114  and  _115
REMARK   53  A    between atoms: _115  and  _116
REMARK   54  A    between atoms: _118  and  _120
REMARK   55  A    between atoms: _120  and  _121
REMARK   56  A    between atoms: _120  and  _123
REMARK   57  A    between atoms: _123  and  _124
REMARK   58  A    between atoms: _130  and  _132
REMARK   59  A    between atoms: _132  and  _133
REMARK   60  A    between atoms: _136  and  _138
REMARK   61  A    between atoms: _138  and  _139
REMARK   62  A    between atoms: _138  and  _141
REMARK   63  A    between atoms: _141  and  _142
REMARK   64  A    between atoms: _147  and  _149
REMARK   65  A    between atoms: _149  and  _150
REMARK   66  A    between atoms: _149  and  _152
REMARK   67  A    between atoms: _152  and  _153
REMARK   68  A    between atoms: _156  and  _158
REMARK   69  A    between atoms: _158  and  _159
REMARK   70  A    between atoms: _158  and  _161
REMARK   71  A    between atoms: _161  and  _162
REMARK   72  A    between atoms: _162  and  _163
REMARK   73  A    between atoms: _168  and  _170
REMARK   74  A    between atoms: _170  and  _171
REMARK   75  A    between atoms: _170  and  _173
REMARK   76  A    between atoms: _173  and  _174
REMARK   77  A    between atoms: _178  and  _179
REMARK   78  A    between atoms: _184  and  _186
REMARK   79  A    between atoms: _186  and  _187
REMARK   80  A    between atoms: _186  and  _189
REMARK   81  A    between atoms: _189  and  _190
REMARK   82  A    between atoms: _195  and  _196
REMARK   83  A    between atoms: _198  and  _200
REMARK   84  A    between atoms: _200  and  _201
REMARK   85  A    between atoms: _200  and  _203
REMARK   86  A    between atoms: _203  and  _204
REMARK   87  A    between atoms: _207  and  _209
REMARK   88  A    between atoms: _209  and  _210
REMARK   89  A    between atoms: _209  and  _212
REMARK   90  A    between atoms: _212  and  _213
REMARK   91  A    between atoms: _215  and  _217
REMARK   92  A    between atoms: _217  and  _218
REMARK   93  A    between atoms: _217  and  _220
REMARK   94  A    between atoms: _220  and  _221
REMARK   95  A    between atoms: _226  and  _228
REMARK   96  A    between atoms: _228  and  _229
REMARK   97  A    between atoms: _228  and  _231
REMARK   98  A    between atoms: _231  and  _232
REMARK   99  A    between atoms: _235  and  _237
REMARK  100  A    between atoms: _237  and  _238
REMARK  101  A    between atoms: _237  and  _240
REMARK  102  A    between atoms: _240  and  _241
REMARK  103  A    between atoms: _252  and  _253
REMARK  104  A    between atoms: _258  and  _260
REMARK  105  A    between atoms: _260  and  _261
REMARK  106  A    between atoms: _260  and  _263
REMARK  107  A    between atoms: _263  and  _264
REMARK  108  A    between atoms: _267  and  _269
REMARK  109  A    between atoms: _269  and  _270
REMARK  110  A    between atoms: _269  and  _272
REMARK  111  A    between atoms: _272  and  _273
REMARK  112  A    between atoms: _278  and  _280
REMARK  113  A    between atoms: _280  and  _281
REMARK  114  A    between atoms: _283  and  _285
REMARK  115  A    between atoms: _285  and  _286
REMARK  116  A    between atoms: _285  and  _288
REMARK  117  A    between atoms: _288  and  _289
REMARK  118  A    between atoms: _299  and  _301
REMARK  119  A    between atoms: _301  and  _302
REMARK  120  A    between atoms: _301  and  _304
REMARK  121  A    between atoms: _304  and  _305
REMARK  122  A    between atoms: _310  and  _311
REMARK  123  A    between atoms: _313  and  _315
REMARK  124  A    between atoms: _315  and  _316
REMARK  125  A    between atoms: _315  and  _318
REMARK  126  A    between atoms: _318  and  _319
REMARK  127  A    between atoms: _322  and  _324
REMARK  128  A    between atoms: _324  and  _325
REMARK  129  A    between atoms: _324  and  _327
REMARK  130  A    between atoms: _327  and  _328
REMARK  131  A    between atoms: _333  and  _335
REMARK  132  A    between atoms: _335  and  _336
REMARK  133  A    between atoms: _335  and  _338
REMARK  134  A    between atoms: _338  and  _339
REMARK  135  A    between atoms: _344  and  _346
REMARK  136  A    between atoms: _346  and  _347
REMARK  137  A    between atoms: _346  and  _349
REMARK  138  A    between atoms: _349  and  _350
REMARK  139  A    between atoms: _350  and  _351
REMARK  140  A    between atoms: _354  and  _356
REMARK  141  A    between atoms: _356  and  _357
REMARK  142  A    between atoms: _359  and  _361
REMARK  143  A    between atoms: _361  and  _362
REMARK  144  A    between atoms: _361  and  _364
REMARK  145  A    between atoms: _364  and  _365
REMARK  146  A    between atoms: _367  and  _369
REMARK  147  A    between atoms: _369  and  _370
REMARK  148  A    between atoms: _369  and  _372
REMARK  149  A    between atoms: _372  and  _373
REMARK  150  A    between atoms: _378  and  _379
REMARK  151  A    between atoms: _381  and  _383
REMARK  152  A    between atoms: _383  and  _384
REMARK  153  A    between atoms: _383  and  _386
REMARK  154  A    between atoms: _386  and  _387
REMARK  155  A    between atoms: _392  and  _394
REMARK  156  A    between atoms: _394  and  _395
REMARK  157  A    between atoms: _397  and  _399
REMARK  158  A    between atoms: _399  and  _400
REMARK  159  A    between atoms: _399  and  _402
REMARK  160  A    between atoms: _402  and  _403
REMARK  161  A    between atoms: _408  and  _410
REMARK  162  A    between atoms: _410  and  _411
REMARK  163  A    between atoms: _410  and  _413
REMARK  164  A    between atoms: _413  and  _414
REMARK  165  A    between atoms: _424  and  _426
REMARK  166  A    between atoms: _426  and  _427
REMARK  167  A    between atoms: _426  and  _429
REMARK  168  A    between atoms: _429  and  _430
REMARK  169  A    between atoms: _435  and  _437
REMARK  170  A    between atoms: _437  and  _438
REMARK  171  A    between atoms: _437  and  _440
REMARK  172  A    between atoms: _440  and  _441
REMARK  173  A    between atoms: _441  and  _442
REMARK  174  A    between atoms: _442  and  _443
REMARK  175  A    between atoms: _443  and  _444
REMARK  176  A    between atoms: _448  and  _450
REMARK  177  A    between atoms: _450  and  _451
REMARK  178  A    between atoms: _450  and  _453
REMARK  179  A    between atoms: _453  and  _454
REMARK  180  A    between atoms: _460  and  _462
REMARK  181  A    between atoms: _462  and  _463
REMARK  182  A    between atoms: _465  and  _467
REMARK  183  A    between atoms: _467  and  _468
REMARK  184  A    between atoms: _467  and  _470
REMARK  185  A    between atoms: _470  and  _471
REMARK  186  A    between atoms: _473  and  _475
REMARK  187  A    between atoms: _475  and  _476
REMARK  188  A    between atoms: _475  and  _478
REMARK  189  A    between atoms: _478  and  _479
REMARK  190  A    between atoms: _479  and  _480
REMARK  191  A    between atoms: _480  and  _481
REMARK  192  A    between atoms: _481  and  _482
REMARK  193  A    between atoms: _486  and  _488
REMARK  194  A    between atoms: _488  and  _489
REMARK  195  A    between atoms: _488  and  _491
REMARK  196  A    between atoms: _491  and  _492
REMARK  197  A    between atoms: _497  and  _499
REMARK  198  A    between atoms: _499  and  _500
REMARK  199  A    between atoms: _499  and  _502
REMARK  200  A    between atoms: _502  and  _503
REMARK  201  A    between atoms: _503  and  _504
REMARK  202  A    between atoms: _504  and  _505
REMARK  203  A    between atoms: _514  and  _516
REMARK  204  A    between atoms: _516  and  _517
REMARK  205  A    between atoms: _516  and  _519
REMARK  206  A    between atoms: _519  and  _520
REMARK  207  A    between atoms: _520  and  _521
REMARK  208  A    between atoms: _526  and  _528
REMARK  209  A    between atoms: _528  and  _529
REMARK  210  A    between atoms: _528  and  _531
REMARK  211  A    between atoms: _531  and  _532
REMARK  212  A    between atoms: _532  and  _533
REMARK  213  A    between atoms: _538  and  _540
REMARK  214  A    between atoms: _540  and  _541
REMARK  215  A    between atoms: _540  and  _543
REMARK  216  A    between atoms: _543  and  _544
REMARK  217  A    between atoms: _544  and  _545
REMARK  218  A    between atoms: _547  and  _549
REMARK  219  A    between atoms: _549  and  _550
REMARK  220  A    between atoms: _549  and  _552
REMARK  221  A    between atoms: _552  and  _553
REMARK  222  A    between atoms: _555  and  _557
REMARK  223  A    between atoms: _557  and  _558
REMARK  224  A    between atoms: _557  and  _560
REMARK  225  A    between atoms: _560  and  _561
REMARK  226  A    between atoms: _566  and  _567
REMARK  227  A    between atoms: _569  and  _571
REMARK  228  A    between atoms: _571  and  _572
REMARK  229  A    between atoms: _571  and  _574
REMARK  230  A    between atoms: _574  and  _575
REMARK  231  A    between atoms: _585  and  _587
REMARK  232  A    between atoms: _587  and  _588
REMARK  233  A    between atoms: _587  and  _590
REMARK  234  A    between atoms: _590  and  _591
REMARK  235  A    between atoms: _594  and  _596
REMARK  236  A    between atoms: _596  and  _597
REMARK  237  A    between atoms: _600  and  _602
REMARK  238  A    between atoms: _602  and  _603
REMARK  239  A    between atoms: _602  and  _605
REMARK  240  A    between atoms: _605  and  _606
REMARK                            x       y       z     vdW  Elec       q    Type
REMARK                         _______ _______ _______ _____ _____    ______ ____
ROOT
ATOM      1  O   HOH     1     -21.601   9.823  -9.892  0.00  0.00    +0.000 OA
ENDROOT
TORSDOF 0
REMARK  Name = ../refined-set-2016/4ua8/4ua8_pocket.pdb
REMARK  240 active torsions:
REMARK  status: ('A' for Active; 'I' for Inactive)
REMARK    1  A    between atoms: _1  and  _3
REMARK    2  A    between atoms: _3  and  _4
REMARK    3  A    between atoms: _7  and  _8
REMARK    4  A    between atoms: _13  and  _15
REMARK    5  A    between atoms: _15  and  _16
REMARK    6  A    between atoms: _19  and  _21
REMARK    7  A    between atoms: _21  and  _22
REMARK    8  A    between atoms: _21  and  _24
REMARK    9  A    between atoms: _24  and  _25
REMARK   10  A    between atoms: _25  and  _26
REMARK   11  A    between atoms: _29  and  _31
REMARK   12  A    between atoms: _31  and  _32
REMARK   13  A    between atoms: _31  and  _34
REMARK   14  A    between atoms: _34  and  _35
REMARK   15  A    between atoms: _38  and  _40
REMARK   16  A    between atoms: _40  and  _41
REMARK   17  A    between atoms: _40  and  _43
REMARK   18  A    between atoms: _43  and  _44
REMARK   19  A    between atoms: _46  and  _48
REMARK   20  A    between atoms: _48  and  _49
REMARK   21  A    between atoms: _48  and  _51
REMARK   22  A    between atoms: _51  and  _52
REMARK   23  A    between atoms: _54  and  _56
REMARK   24  A    between atoms: _56  and  _57
REMARK   25  A    between atoms: _56  and  _59
REMARK   26  A    between atoms: _59  and  _60
REMARK   27  A    between atoms: _60  and  _61
REMARK   28  A    between atoms: _64  and  _66
REMARK   29  A    between atoms: _66  and  _67
REMARK   30  A    between atoms: _66  and  _69
REMARK   31  A    between atoms: _69  and  _70
REMARK   32  A    between atoms: _72  and  _74
REMARK   33  A    between atoms: _74  and  _75
REMARK   34  A    between atoms: _74  and  _77
REMARK   35  A    between atoms: _77  and  _78
REMARK   36  A    between atoms: _81  and  _83
REMARK   37  A    between atoms: _83  and  _84
REMARK   38  A    between atoms: _87  and  _89
REMARK   39  A    between atoms: _89  and  _90
REMARK   40  A    between atoms: _89  and  _92
REMARK   41  A    between atoms: _92  and  _93
REMARK   42  A    between atoms: _93  and  _94
REMARK   43  A    between atoms: _94  and  _95
REMARK   44  A    between atoms: _95  and  _96
REMARK   45  A    between atoms: _100  and  _102
REMARK   46  A    between atoms: _102  and  _103
REMARK   47  A    between atoms: _102  and  _105
REMARK   48  A    between atoms: _105  and  _106
REMARK   49  A    between atoms: _109  and  _111
REMARK   50  A    between atoms: _111  and  _112
REMARK   51  A    between atoms: _111  and  _114
REMARK   52  A    between atoms: _114  and  _115
REMARK   53  A    between atoms: _115  and  _116
REMARK   54  A    between atoms: _118  and  _120
REMARK   55  A    between atoms: _120  and  _121
REMARK   56  A    between atoms: _120  and  _123
REMARK   57  A    between atoms: _123  and  _124
REMARK   58  A    between atoms: _130  and  _132
REMARK   59  A    between atoms: _132  and  _133
REMARK   60  A    between atoms: _136  and  _138
REMARK   61  A    between atoms: _138  and  _139
REMARK   62  A    between atoms: _138  and  _141
REMARK   63  A    between atoms: _141  and  _142
REMARK   64  A    between atoms: _147  and  _149
REMARK   65  A    between atoms: _149  and  _150
REMARK   66  A    between atoms: _149  and  _152
REMARK   67  A    between atoms: _152  and  _153
REMARK   68  A    between atoms: _156  and  _158
REMARK   69  A    between atoms: _158  and  _159
REMARK   70  A    between atoms: _158  and  _161
REMARK   71  A    between atoms: _161  and  _162
REMARK   72  A    between atoms: _162  and  _163
REMARK   73  A    between atoms: _168  and  _170
REMARK   74  A    between atoms: _170  and  _171
REMARK   75  A    between atoms: _170  and  _173
REMARK   76  A    between atoms: _173  and  _174
REMARK   77  A    between atoms: _178  and  _179
REMARK   78  A    between atoms: _184  and  _186
REMARK   79  A    between atoms: _186  and  _187
REMARK   80  A    between atoms: _186  and  _189
REMARK   81  A    between atoms: _189  and  _190
REMARK   82  A    between atoms: _195  and  _196
REMARK   83  A    between atoms: _198  and  _200
REMARK   84  A    between atoms: _200  and  _201
REMARK   85  A    between atoms: _200  and  _203
REMARK   86  A    between atoms: _203  and  _204
REMARK   87  A    between atoms: _207  and  _209
REMARK   88  A    between atoms: _209  and  _210
REMARK   89  A    between atoms: _209  and  _212
REMARK   90  A    between atoms: _212  and  _213
REMARK   91  A    between atoms: _215  and  _217
REMARK   92  A    between atoms: _217  and  _218
REMARK   93  A    between atoms: _217  and  _220
REMARK   94  A    between atoms: _220  and  _221
REMARK   95  A    between atoms: _226  and  _228
REMARK   96  A    between atoms: _228  and  _229
REMARK   97  A    between atoms: _228  and  _231
REMARK   98  A    between atoms: _231  and  _232
REMARK   99  A    between atoms: _235  and  _237
REMARK  100  A    between atoms: _237  and  _238
REMARK  101  A    between atoms: _237  and  _240
REMARK  102  A    between atoms: _240  and  _241
REMARK  103  A    between atoms: _252  and  _253
REMARK  104  A    between atoms: _258  and  _260
REMARK  105  A    between atoms: _260  and  _261
REMARK  106  A    between atoms: _260  and  _263
REMARK  107  A    between atoms: _263  and  _264
REMARK  108  A    between atoms: _267  and  _269
REMARK  109  A    between atoms: _269  and  _270
REMARK  110  A    between atoms: _269  and  _272
REMARK  111  A    between atoms: _272  and  _273
REMARK  112  A    between atoms: _278  and  _280
REMARK  113  A    between atoms: _280  and  _281
REMARK  114  A    between atoms: _283  and  _285
REMARK  115  A    between atoms: _285  and  _286
REMARK  116  A    between atoms: _285  and  _288
REMARK  117  A    between atoms: _288  and  _289
REMARK  118  A    between atoms: _299  and  _301
REMARK  119  A    between atoms: _301  and  _302
REMARK  120  A    between atoms: _301  and  _304
REMARK  121  A    between atoms: _304  and  _305
REMARK  122  A    between atoms: _310  and  _311
REMARK  123  A    between atoms: _313  and  _315
REMARK  124  A    between atoms: _315  and  _316
REMARK  125  A    between atoms: _315  and  _318
REMARK  126  A    between atoms: _318  and  _319
REMARK  127  A    between atoms: _322  and  _324
REMARK  128  A    between atoms: _324  and  _325
REMARK  129  A    between atoms: _324  and  _327
REMARK  130  A    between atoms: _327  and  _328
REMARK  131  A    between atoms: _333  and  _335
REMARK  132  A    between atoms: _335  and  _336
REMARK  133  A    between atoms: _335  and  _338
REMARK  134  A    between atoms: _338  and  _339
REMARK  135  A    between atoms: _344  and  _346
REMARK  136  A    between atoms: _346  and  _347
REMARK  137  A    between atoms: _346  and  _349
REMARK  138  A    between atoms: _349  and  _350
REMARK  139  A    between atoms: _350  and  _351
REMARK  140  A    between atoms: _354  and  _356
REMARK  141  A    between atoms: _356  and  _357
REMARK  142  A    between atoms: _359  and  _361
REMARK  143  A    between atoms: _361  and  _362
REMARK  144  A    between atoms: _361  and  _364
REMARK  145  A    between atoms: _364  and  _365
REMARK  146  A    between atoms: _367  and  _369
REMARK  147  A    between atoms: _369  and  _370
REMARK  148  A    between atoms: _369  and  _372
REMARK  149  A    between atoms: _372  and  _373
REMARK  150  A    between atoms: _378  and  _379
REMARK  151  A    between atoms: _381  and  _383
REMARK  152  A    between atoms: _383  and  _384
REMARK  153  A    between atoms: _383  and  _386
REMARK  154  A    between atoms: _386  and  _387
REMARK  155  A    between atoms: _392  and  _394
REMARK  156  A    between atoms: _394  and  _395
REMARK  157  A    between atoms: _397  and  _399
REMARK  158  A    between atoms: _399  and  _400
REMARK  159  A    between atoms: _399  and  _402
REMARK  160  A    between atoms: _402  and  _403
REMARK  161  A    between atoms: _408  and  _410
REMARK  162  A    between atoms: _410  and  _411
REMARK  163  A    between atoms: _410  and  _413
REMARK  164  A    between atoms: _413  and  _414
REMARK  165  A    between atoms: _424  and  _426
REMARK  166  A    between atoms: _426  and  _427
REMARK  167  A    between atoms: _426  and  _429
REMARK  168  A    between atoms: _429  and  _430
REMARK  169  A    between atoms: _435  and  _437
REMARK  170  A    between atoms: _437  and  _438
REMARK  171  A    between atoms: _437  and  _440
REMARK  172  A    between atoms: _440  and  _441
REMARK  173  A    between atoms: _441  and  _442
REMARK  174  A    between atoms: _442  and  _443
REMARK  175  A    between atoms: _443  and  _444
REMARK  176  A    between atoms: _448  and  _450
REMARK  177  A    between atoms: _450  and  _451
REMARK  178  A    between atoms: _450  and  _453
REMARK  179  A    between atoms: _453  and  _454
REMARK  180  A    between atoms: _460  and  _462
REMARK  181  A    between atoms: _462  and  _463
REMARK  182  A    between atoms: _465  and  _467
REMARK  183  A    between atoms: _467  and  _468
REMARK  184  A    between atoms: _467  and  _470
REMARK  185  A    between atoms: _470  and  _471
REMARK  186  A    between atoms: _473  and  _475
REMARK  187  A    between atoms: _475  and  _476
REMARK  188  A    between atoms: _475  and  _478
REMARK  189  A    between atoms: _478  and  _479
REMARK  190  A    between atoms: _479  and  _480
REMARK  191  A    between atoms: _480  and  _481
REMARK  192  A    between atoms: _481  and  _482
REMARK  193  A    between atoms: _486  and  _488
REMARK  194  A    between atoms: _488  and  _489
REMARK  195  A    between atoms: _488  and  _491
REMARK  196  A    between atoms: _491  and  _492
REMARK  197  A    between atoms: _497  and  _499
REMARK  198  A    between atoms: _499  and  _500
REMARK  199  A    between atoms: _499  and  _502
REMARK  200  A    between atoms: _502  and  _503
REMARK  201  A    between atoms: _503  and  _504
REMARK  202  A    between atoms: _504  and  _505
REMARK  203  A    between atoms: _514  and  _516
REMARK  204  A    between atoms: _516  and  _517
REMARK  205  A    between atoms: _516  and  _519
REMARK  206  A    between atoms: _519  and  _520
REMARK  207  A    between atoms: _520  and  _521
REMARK  208  A    between atoms: _526  and  _528
REMARK  209  A    between atoms: _528  and  _529
REMARK  210  A    between atoms: _528  and  _531
REMARK  211  A    between atoms: _531  and  _532
REMARK  212  A    between atoms: _532  and  _533
REMARK  213  A    between atoms: _538  and  _540
REMARK  214  A    between atoms: _540  and  _541
REMARK  215  A    between atoms: _540  and  _543
REMARK  216  A    between atoms: _543  and  _544
REMARK  217  A    between atoms: _544  and  _545
REMARK  218  A    between atoms: _547  and  _549
REMARK  219  A    between atoms: _549  and  _550
REMARK  220  A    between atoms: _549  and  _552
REMARK  221  A    between atoms: _552  and  _553
REMARK  222  A    between atoms: _555  and  _557
REMARK  223  A    between atoms: _557  and  _558
REMARK  224  A    between atoms: _557  and  _560
REMARK  225  A    between atoms: _560  and  _561
REMARK  226  A    between atoms: _566  and  _567
REMARK  227  A    between atoms: _569  and  _571
REMARK  228  A    between atoms: _571  and  _572
REMARK  229  A    between atoms: _571  and  _574
REMARK  230  A    between atoms: _574  and  _575
REMARK  231  A    between atoms: _585  and  _587
REMARK  232  A    between atoms: _587  and  _588
REMARK  233  A    between atoms: _587  and  _590
REMARK  234  A    between atoms: _590  and  _591
REMARK  235  A    between atoms: _594  and  _596
REMARK  236  A    between atoms: _596  and  _597
REMARK  237  A    between atoms: _600  and  _602
REMARK  238  A    between atoms: _602  and  _603
REMARK  239  A    between atoms: _602  and  _605
REMARK  240  A    between atoms: _605  and  _606
REMARK                            x       y       z     vdW  Elec       q    Type
REMARK                         _______ _______ _______ _____ _____    ______ ____
ROOT
ATOM      1  O   HOH     1     -31.462   7.318  -9.225  0.00  0.00    +0.000 OA
ENDROOT
TORSDOF 0
REMARK  Name = ../refined-set-2016/4ua8/4ua8_pocket.pdb
REMARK  240 active torsions:
REMARK  status: ('A' for Active; 'I' for Inactive)
REMARK    1  A    between atoms: _1  and  _3
REMARK    2  A    between atoms: _3  and  _4
REMARK    3  A    between atoms: _7  and  _8
REMARK    4  A    between atoms: _13  and  _15
REMARK    5  A    between atoms: _15  and  _16
REMARK    6  A    between atoms: _19  and  _21
REMARK    7  A    between atoms: _21  and  _22
REMARK    8  A    between atoms: _21  and  _24
REMARK    9  A    between atoms: _24  and  _25
REMARK   10  A    between atoms: _25  and  _26
REMARK   11  A    between atoms: _29  and  _31
REMARK   12  A    between atoms: _31  and  _32
REMARK   13  A    between atoms: _31  and  _34
REMARK   14  A    between atoms: _34  and  _35
REMARK   15  A    between atoms: _38  and  _40
REMARK   16  A    between atoms: _40  and  _41
REMARK   17  A    between atoms: _40  and  _43
REMARK   18  A    between atoms: _43  and  _44
REMARK   19  A    between atoms: _46  and  _48
REMARK   20  A    between atoms: _48  and  _49
REMARK   21  A    between atoms: _48  and  _51
REMARK   22  A    between atoms: _51  and  _52
REMARK   23  A    between atoms: _54  and  _56
REMARK   24  A    between atoms: _56  and  _57
REMARK   25  A    between atoms: _56  and  _59
REMARK   26  A    between atoms: _59  and  _60
REMARK   27  A    between atoms: _60  and  _61
REMARK   28  A    between atoms: _64  and  _66
REMARK   29  A    between atoms: _66  and  _67
REMARK   30  A    between atoms: _66  and  _69
REMARK   31  A    between atoms: _69  and  _70
REMARK   32  A    between atoms: _72  and  _74
REMARK   33  A    between atoms: _74  and  _75
REMARK   34  A    between atoms: _74  and  _77
REMARK   35  A    between atoms: _77  and  _78
REMARK   36  A    between atoms: _81  and  _83
REMARK   37  A    between atoms: _83  and  _84
REMARK   38  A    between atoms: _87  and  _89
REMARK   39  A    between atoms: _89  and  _90
REMARK   40  A    between atoms: _89  and  _92
REMARK   41  A    between atoms: _92  and  _93
REMARK   42  A    between atoms: _93  and  _94
REMARK   43  A    between atoms: _94  and  _95
REMARK   44  A    between atoms: _95  and  _96
REMARK   45  A    between atoms: _100  and  _102
REMARK   46  A    between atoms: _102  and  _103
REMARK   47  A    between atoms: _102  and  _105
REMARK   48  A    between atoms: _105  and  _106
REMARK   49  A    between atoms: _109  and  _111
REMARK   50  A    between atoms: _111  and  _112
REMARK   51  A    between atoms: _111  and  _114
REMARK   52  A    between atoms: _114  and  _115
REMARK   53  A    between atoms: _115  and  _116
REMARK   54  A    between atoms: _118  and  _120
REMARK   55  A    between atoms: _120  and  _121
REMARK   56  A    between atoms: _120  and  _123
REMARK   57  A    between atoms: _123  and  _124
REMARK   58  A    between atoms: _130  and  _132
REMARK   59  A    between atoms: _132  and  _133
REMARK   60  A    between atoms: _136  and  _138
REMARK   61  A    between atoms: _138  and  _139
REMARK   62  A    between atoms: _138  and  _141
REMARK   63  A    between atoms: _141  and  _142
REMARK   64  A    between atoms: _147  and  _149
REMARK   65  A    between atoms: _149  and  _150
REMARK   66  A    between atoms: _149  and  _152
REMARK   67  A    between atoms: _152  and  _153
REMARK   68  A    between atoms: _156  and  _158
REMARK   69  A    between atoms: _158  and  _159
REMARK   70  A    between atoms: _158  and  _161
REMARK   71  A    between atoms: _161  and  _162
REMARK   72  A    between atoms: _162  and  _163
REMARK   73  A    between atoms: _168  and  _170
REMARK   74  A    between atoms: _170  and  _171
REMARK   75  A    between atoms: _170  and  _173
REMARK   76  A    between atoms: _173  and  _174
REMARK   77  A    between atoms: _178  and  _179
REMARK   78  A    between atoms: _184  and  _186
REMARK   79  A    between atoms: _186  and  _187
REMARK   80  A    between atoms: _186  and  _189
REMARK   81  A    between atoms: _189  and  _190
REMARK   82  A    between atoms: _195  and  _196
REMARK   83  A    between atoms: _198  and  _200
REMARK   84  A    between atoms: _200  and  _201
REMARK   85  A    between atoms: _200  and  _203
REMARK   86  A    between atoms: _203  and  _204
REMARK   87  A    between atoms: _207  and  _209
REMARK   88  A    between atoms: _209  and  _210
REMARK   89  A    between atoms: _209  and  _212
REMARK   90  A    between atoms: _212  and  _213
REMARK   91  A    between atoms: _215  and  _217
REMARK   92  A    between atoms: _217  and  _218
REMARK   93  A    between atoms: _217  and  _220
REMARK   94  A    between atoms: _220  and  _221
REMARK   95  A    between atoms: _226  and  _228
REMARK   96  A    between atoms: _228  and  _229
REMARK   97  A    between atoms: _228  and  _231
REMARK   98  A    between atoms: _231  and  _232
REMARK   99  A    between atoms: _235  and  _237
REMARK  100  A    between atoms: _237  and  _238
REMARK  101  A    between atoms: _237  and  _240
REMARK  102  A    between atoms: _240  and  _241
REMARK  103  A    between atoms: _252  and  _253
REMARK  104  A    between atoms: _258  and  _260
REMARK  105  A    between atoms: _260  and  _261
REMARK  106  A    between atoms: _260  and  _263
REMARK  107  A    between atoms: _263  and  _264
REMARK  108  A    between atoms: _267  and  _269
REMARK  109  A    between atoms: _269  and  _270
REMARK  110  A    between atoms: _269  and  _272
REMARK  111  A    between atoms: _272  and  _273
REMARK  112  A    between atoms: _278  and  _280
REMARK  113  A    between atoms: _280  and  _281
REMARK  114  A    between atoms: _283  and  _285
REMARK  115  A    between atoms: _285  and  _286
REMARK  116  A    between atoms: _285  and  _288
REMARK  117  A    between atoms: _288  and  _289
REMARK  118  A    between atoms: _299  and  _301
REMARK  119  A    between atoms: _301  and  _302
REMARK  120  A    between atoms: _301  and  _304
REMARK  121  A    between atoms: _304  and  _305
REMARK  122  A    between atoms: _310  and  _311
REMARK  123  A    between atoms: _313  and  _315
REMARK  124  A    between atoms: _315  and  _316
REMARK  125  A    between atoms: _315  and  _318
REMARK  126  A    between atoms: _318  and  _319
REMARK  127  A    between atoms: _322  and  _324
REMARK  128  A    between atoms: _324  and  _325
REMARK  129  A    between atoms: _324  and  _327
REMARK  130  A    between atoms: _327  and  _328
REMARK  131  A    between atoms: _333  and  _335
REMARK  132  A    between atoms: _335  and  _336
REMARK  133  A    between atoms: _335  and  _338
REMARK  134  A    between atoms: _338  and  _339
REMARK  135  A    between atoms: _344  and  _346
REMARK  136  A    between atoms: _346  and  _347
REMARK  137  A    between atoms: _346  and  _349
REMARK  138  A    between atoms: _349  and  _350
REMARK  139  A    between atoms: _350  and  _351
REMARK  140  A    between atoms: _354  and  _356
REMARK  141  A    between atoms: _356  and  _357
REMARK  142  A    between atoms: _359  and  _361
REMARK  143  A    between atoms: _361  and  _362
REMARK  144  A    between atoms: _361  and  _364
REMARK  145  A    between atoms: _364  and  _365
REMARK  146  A    between atoms: _367  and  _369
REMARK  147  A    between atoms: _369  and  _370
REMARK  148  A    between atoms: _369  and  _372
REMARK  149  A    between atoms: _372  and  _373
REMARK  150  A    between atoms: _378  and  _379
REMARK  151  A    between atoms: _381  and  _383
REMARK  152  A    between atoms: _383  and  _384
REMARK  153  A    between atoms: _383  and  _386
REMARK  154  A    between atoms: _386  and  _387
REMARK  155  A    between atoms: _392  and  _394
REMARK  156  A    between atoms: _394  and  _395
REMARK  157  A    between atoms: _397  and  _399
REMARK  158  A    between atoms: _399  and  _400
REMARK  159  A    between atoms: _399  and  _402
REMARK  160  A    between atoms: _402  and  _403
REMARK  161  A    between atoms: _408  and  _410
REMARK  162  A    between atoms: _410  and  _411
REMARK  163  A    between atoms: _410  and  _413
REMARK  164  A    between atoms: _413  and  _414
REMARK  165  A    between atoms: _424  and  _426
REMARK  166  A    between atoms: _426  and  _427
REMARK  167  A    between atoms: _426  and  _429
REMARK  168  A    between atoms: _429  and  _430
REMARK  169  A    between atoms: _435  and  _437
REMARK  170  A    between atoms: _437  and  _438
REMARK  171  A    between atoms: _437  and  _440
REMARK  172  A    between atoms: _440  and  _441
REMARK  173  A    between atoms: _441  and  _442
REMARK  174  A    between atoms: _442  and  _443
REMARK  175  A    between atoms: _443  and  _444
REMARK  176  A    between atoms: _448  and  _450
REMARK  177  A    between atoms: _450  and  _451
REMARK  178  A    between atoms: _450  and  _453
REMARK  179  A    between atoms: _453  and  _454
REMARK  180  A    between atoms: _460  and  _462
REMARK  181  A    between atoms: _462  and  _463
REMARK  182  A    between atoms: _465  and  _467
REMARK  183  A    between atoms: _467  and  _468
REMARK  184  A    between atoms: _467  and  _470
REMARK  185  A    between atoms: _470  and  _471
REMARK  186  A    between atoms: _473  and  _475
REMARK  187  A    between atoms: _475  and  _476
REMARK  188  A    between atoms: _475  and  _478
REMARK  189  A    between atoms: _478  and  _479
REMARK  190  A    between atoms: _479  and  _480
REMARK  191  A    between atoms: _480  and  _481
REMARK  192  A    between atoms: _481  and  _482
REMARK  193  A    between atoms: _486  and  _488
REMARK  194  A    between atoms: _488  and  _489
REMARK  195  A    between atoms: _488  and  _491
REMARK  196  A    between atoms: _491  and  _492
REMARK  197  A    between atoms: _497  and  _499
REMARK  198  A    between atoms: _499  and  _500
REMARK  199  A    between atoms: _499  and  _502
REMARK  200  A    between atoms: _502  and  _503
REMARK  201  A    between atoms: _503  and  _504
REMARK  202  A    between atoms: _504  and  _505
REMARK  203  A    between atoms: _514  and  _516
REMARK  204  A    between atoms: _516  and  _517
REMARK  205  A    between atoms: _516  and  _519
REMARK  206  A    between atoms: _519  and  _520
REMARK  207  A    between atoms: _520  and  _521
REMARK  208  A    between atoms: _526  and  _528
REMARK  209  A    between atoms: _528  and  _529
REMARK  210  A    between atoms: _528  and  _531
REMARK  211  A    between atoms: _531  and  _532
REMARK  212  A    between atoms: _532  and  _533
REMARK  213  A    between atoms: _538  and  _540
REMARK  214  A    between atoms: _540  and  _541
REMARK  215  A    between atoms: _540  and  _543
REMARK  216  A    between atoms: _543  and  _544
REMARK  217  A    between atoms: _544  and  _545
REMARK  218  A    between atoms: _547  and  _549
REMARK  219  A    between atoms: _549  and  _550
REMARK  220  A    between atoms: _549  and  _552
REMARK  221  A    between atoms: _552  and  _553
REMARK  222  A    between atoms: _555  and  _557
REMARK  223  A    between atoms: _557  and  _558
REMARK  224  A    between atoms: _557  and  _560
REMARK  225  A    between atoms: _560  and  _561
REMARK  226  A    between atoms: _566  and  _567
REMARK  227  A    between atoms: _569  and  _571
REMARK  228  A    between atoms: _571  and  _572
REMARK  229  A    between atoms: _571  and  _574
REMARK  230  A    between atoms: _574  and  _575
REMARK  231  A    between atoms: _585  and  _587
REMARK  232  A    between atoms: _587  and  _588
REMARK  233  A    between atoms: _587  and  _590
REMARK  234  A    between atoms: _590  and  _591
REMARK  235  A    between atoms: _594  and  _596
REMARK  236  A    between atoms: _596  and  _597
REMARK  237  A    between atoms: _600  and  _602
REMARK  238  A    between atoms: _602  and  _603
REMARK  239  A    between atoms: _602  and  _605
REMARK  240  A    between atoms: _605  and  _606
REMARK                            x       y       z     vdW  Elec       q    Type
REMARK                         _______ _______ _______ _____ _____    ______ ____
ROOT
ATOM      1  O   HOH     1     -19.627   8.468 -10.901  0.00  0.00    +0.000 OA
ENDROOT
TORSDOF 0
REMARK  Name = ../refined-set-2016/4ua8/4ua8_pocket.pdb
REMARK  240 active torsions:
REMARK  status: ('A' for Active; 'I' for Inactive)
REMARK    1  A    between atoms: _1  and  _3
REMARK    2  A    between atoms: _3  and  _4
REMARK    3  A    between atoms: _7  and  _8
REMARK    4  A    between atoms: _13  and  _15
REMARK    5  A    between atoms: _15  and  _16
REMARK    6  A    between atoms: _19  and  _21
REMARK    7  A    between atoms: _21  and  _22
REMARK    8  A    between atoms: _21  and  _24
REMARK    9  A    between atoms: _24  and  _25
REMARK   10  A    between atoms: _25  and  _26
REMARK   11  A    between atoms: _29  and  _31
REMARK   12  A    between atoms: _31  and  _32
REMARK   13  A    between atoms: _31  and  _34
REMARK   14  A    between atoms: _34  and  _35
REMARK   15  A    between atoms: _38  and  _40
REMARK   16  A    between atoms: _40  and  _41
REMARK   17  A    between atoms: _40  and  _43
REMARK   18  A    between atoms: _43  and  _44
REMARK   19  A    between atoms: _46  and  _48
REMARK   20  A    between atoms: _48  and  _49
REMARK   21  A    between atoms: _48  and  _51
REMARK   22  A    between atoms: _51  and  _52
REMARK   23  A    between atoms: _54  and  _56
REMARK   24  A    between atoms: _56  and  _57
REMARK   25  A    between atoms: _56  and  _59
REMARK   26  A    between atoms: _59  and  _60
REMARK   27  A    between atoms: _60  and  _61
REMARK   28  A    between atoms: _64  and  _66
REMARK   29  A    between atoms: _66  and  _67
REMARK   30  A    between atoms: _66  and  _69
REMARK   31  A    between atoms: _69  and  _70
REMARK   32  A    between atoms: _72  and  _74
REMARK   33  A    between atoms: _74  and  _75
REMARK   34  A    between atoms: _74  and  _77
REMARK   35  A    between atoms: _77  and  _78
REMARK   36  A    between atoms: _81  and  _83
REMARK   37  A    between atoms: _83  and  _84
REMARK   38  A    between atoms: _87  and  _89
REMARK   39  A    between atoms: _89  and  _90
REMARK   40  A    between atoms: _89  and  _92
REMARK   41  A    between atoms: _92  and  _93
REMARK   42  A    between atoms: _93  and  _94
REMARK   43  A    between atoms: _94  and  _95
REMARK   44  A    between atoms: _95  and  _96
REMARK   45  A    between atoms: _100  and  _102
REMARK   46  A    between atoms: _102  and  _103
REMARK   47  A    between atoms: _102  and  _105
REMARK   48  A    between atoms: _105  and  _106
REMARK   49  A    between atoms: _109  and  _111
REMARK   50  A    between atoms: _111  and  _112
REMARK   51  A    between atoms: _111  and  _114
REMARK   52  A    between atoms: _114  and  _115
REMARK   53  A    between atoms: _115  and  _116
REMARK   54  A    between atoms: _118  and  _120
REMARK   55  A    between atoms: _120  and  _121
REMARK   56  A    between atoms: _120  and  _123
REMARK   57  A    between atoms: _123  and  _124
REMARK   58  A    between atoms: _130  and  _132
REMARK   59  A    between atoms: _132  and  _133
REMARK   60  A    between atoms: _136  and  _138
REMARK   61  A    between atoms: _138  and  _139
REMARK   62  A    between atoms: _138  and  _141
REMARK   63  A    between atoms: _141  and  _142
REMARK   64  A    between atoms: _147  and  _149
REMARK   65  A    between atoms: _149  and  _150
REMARK   66  A    between atoms: _149  and  _152
REMARK   67  A    between atoms: _152  and  _153
REMARK   68  A    between atoms: _156  and  _158
REMARK   69  A    between atoms: _158  and  _159
REMARK   70  A    between atoms: _158  and  _161
REMARK   71  A    between atoms: _161  and  _162
REMARK   72  A    between atoms: _162  and  _163
REMARK   73  A    between atoms: _168  and  _170
REMARK   74  A    between atoms: _170  and  _171
REMARK   75  A    between atoms: _170  and  _173
REMARK   76  A    between atoms: _173  and  _174
REMARK   77  A    between atoms: _178  and  _179
REMARK   78  A    between atoms: _184  and  _186
REMARK   79  A    between atoms: _186  and  _187
REMARK   80  A    between atoms: _186  and  _189
REMARK   81  A    between atoms: _189  and  _190
REMARK   82  A    between atoms: _195  and  _196
REMARK   83  A    between atoms: _198  and  _200
REMARK   84  A    between atoms: _200  and  _201
REMARK   85  A    between atoms: _200  and  _203
REMARK   86  A    between atoms: _203  and  _204
REMARK   87  A    between atoms: _207  and  _209
REMARK   88  A    between atoms: _209  and  _210
REMARK   89  A    between atoms: _209  and  _212
REMARK   90  A    between atoms: _212  and  _213
REMARK   91  A    between atoms: _215  and  _217
REMARK   92  A    between atoms: _217  and  _218
REMARK   93  A    between atoms: _217  and  _220
REMARK   94  A    between atoms: _220  and  _221
REMARK   95  A    between atoms: _226  and  _228
REMARK   96  A    between atoms: _228  and  _229
REMARK   97  A    between atoms: _228  and  _231
REMARK   98  A    between atoms: _231  and  _232
REMARK   99  A    between atoms: _235  and  _237
REMARK  100  A    between atoms: _237  and  _238
REMARK  101  A    between atoms: _237  and  _240
REMARK  102  A    between atoms: _240  and  _241
REMARK  103  A    between atoms: _252  and  _253
REMARK  104  A    between atoms: _258  and  _260
REMARK  105  A    between atoms: _260  and  _261
REMARK  106  A    between atoms: _260  and  _263
REMARK  107  A    between atoms: _263  and  _264
REMARK  108  A    between atoms: _267  and  _269
REMARK  109  A    between atoms: _269  and  _270
REMARK  110  A    between atoms: _269  and  _272
REMARK  111  A    between atoms: _272  and  _273
REMARK  112  A    between atoms: _278  and  _280
REMARK  113  A    between atoms: _280  and  _281
REMARK  114  A    between atoms: _283  and  _285
REMARK  115  A    between atoms: _285  and  _286
REMARK  116  A    between atoms: _285  and  _288
REMARK  117  A    between atoms: _288  and  _289
REMARK  118  A    between atoms: _299  and  _301
REMARK  119  A    between atoms: _301  and  _302
REMARK  120  A    between atoms: _301  and  _304
REMARK  121  A    between atoms: _304  and  _305
REMARK  122  A    between atoms: _310  and  _311
REMARK  123  A    between atoms: _313  and  _315
REMARK  124  A    between atoms: _315  and  _316
REMARK  125  A    between atoms: _315  and  _318
REMARK  126  A    between atoms: _318  and  _319
REMARK  127  A    between atoms: _322  and  _324
REMARK  128  A    between atoms: _324  and  _325
REMARK  129  A    between atoms: _324  and  _327
REMARK  130  A    between atoms: _327  and  _328
REMARK  131  A    between atoms: _333  and  _335
REMARK  132  A    between atoms: _335  and  _336
REMARK  133  A    between atoms: _335  and  _338
REMARK  134  A    between atoms: _338  and  _339
REMARK  135  A    between atoms: _344  and  _346
REMARK  136  A    between atoms: _346  and  _347
REMARK  137  A    between atoms: _346  and  _349
REMARK  138  A    between atoms: _349  and  _350
REMARK  139  A    between atoms: _350  and  _351
REMARK  140  A    between atoms: _354  and  _356
REMARK  141  A    between atoms: _356  and  _357
REMARK  142  A    between atoms: _359  and  _361
REMARK  143  A    between atoms: _361  and  _362
REMARK  144  A    between atoms: _361  and  _364
REMARK  145  A    between atoms: _364  and  _365
REMARK  146  A    between atoms: _367  and  _369
REMARK  147  A    between atoms: _369  and  _370
REMARK  148  A    between atoms: _369  and  _372
REMARK  149  A    between atoms: _372  and  _373
REMARK  150  A    between atoms: _378  and  _379
REMARK  151  A    between atoms: _381  and  _383
REMARK  152  A    between atoms: _383  and  _384
REMARK  153  A    between atoms: _383  and  _386
REMARK  154  A    between atoms: _386  and  _387
REMARK  155  A    between atoms: _392  and  _394
REMARK  156  A    between atoms: _394  and  _395
REMARK  157  A    between atoms: _397  and  _399
REMARK  158  A    between atoms: _399  and  _400
REMARK  159  A    between atoms: _399  and  _402
REMARK  160  A    between atoms: _402  and  _403
REMARK  161  A    between atoms: _408  and  _410
REMARK  162  A    between atoms: _410  and  _411
REMARK  163  A    between atoms: _410  and  _413
REMARK  164  A    between atoms: _413  and  _414
REMARK  165  A    between atoms: _424  and  _426
REMARK  166  A    between atoms: _426  and  _427
REMARK  167  A    between atoms: _426  and  _429
REMARK  168  A    between atoms: _429  and  _430
REMARK  169  A    between atoms: _435  and  _437
REMARK  170  A    between atoms: _437  and  _438
REMARK  171  A    between atoms: _437  and  _440
REMARK  172  A    between atoms: _440  and  _441
REMARK  173  A    between atoms: _441  and  _442
REMARK  174  A    between atoms: _442  and  _443
REMARK  175  A    between atoms: _443  and  _444
REMARK  176  A    between atoms: _448  and  _450
REMARK  177  A    between atoms: _450  and  _451
REMARK  178  A    between atoms: _450  and  _453
REMARK  179  A    between atoms: _453  and  _454
REMARK  180  A    between atoms: _460  and  _462
REMARK  181  A    between atoms: _462  and  _463
REMARK  182  A    between atoms: _465  and  _467
REMARK  183  A    between atoms: _467  and  _468
REMARK  184  A    between atoms: _467  and  _470
REMARK  185  A    between atoms: _470  and  _471
REMARK  186  A    between atoms: _473  and  _475
REMARK  187  A    between atoms: _475  and  _476
REMARK  188  A    between atoms: _475  and  _478
REMARK  189  A    between atoms: _478  and  _479
REMARK  190  A    between atoms: _479  and  _480
REMARK  191  A    between atoms: _480  and  _481
REMARK  192  A    between atoms: _481  and  _482
REMARK  193  A    between atoms: _486  and  _488
REMARK  194  A    between atoms: _488  and  _489
REMARK  195  A    between atoms: _488  and  _491
REMARK  196  A    between atoms: _491  and  _492
REMARK  197  A    between atoms: _497  and  _499
REMARK  198  A    between atoms: _499  and  _500
REMARK  199  A    between atoms: _499  and  _502
REMARK  200  A    between atoms: _502  and  _503
REMARK  201  A    between atoms: _503  and  _504
REMARK  202  A    between atoms: _504  and  _505
REMARK  203  A    between atoms: _514  and  _516
REMARK  204  A    between atoms: _516  and  _517
REMARK  205  A    between atoms: _516  and  _519
REMARK  206  A    between atoms: _519  and  _520
REMARK  207  A    between atoms: _520  and  _521
REMARK  208  A    between atoms: _526  and  _528
REMARK  209  A    between atoms: _528  and  _529
REMARK  210  A    between atoms: _528  and  _531
REMARK  211  A    between atoms: _531  and  _532
REMARK  212  A    between atoms: _532  and  _533
REMARK  213  A    between atoms: _538  and  _540
REMARK  214  A    between atoms: _540  and  _541
REMARK  215  A    between atoms: _540  and  _543
REMARK  216  A    between atoms: _543  and  _544
REMARK  217  A    between atoms: _544  and  _545
REMARK  218  A    between atoms: _547  and  _549
REMARK  219  A    between atoms: _549  and  _550
REMARK  220  A    between atoms: _549  and  _552
REMARK  221  A    between atoms: _552  and  _553
REMARK  222  A    between atoms: _555  and  _557
REMARK  223  A    between atoms: _557  and  _558
REMARK  224  A    between atoms: _557  and  _560
REMARK  225  A    between atoms: _560  and  _561
REMARK  226  A    between atoms: _566  and  _567
REMARK  227  A    between atoms: _569  and  _571
REMARK  228  A    between atoms: _571  and  _572
REMARK  229  A    between atoms: _571  and  _574
REMARK  230  A    between atoms: _574  and  _575
REMARK  231  A    between atoms: _585  and  _587
REMARK  232  A    between atoms: _587  and  _588
REMARK  233  A    between atoms: _587  and  _590
REMARK  234  A    between atoms: _590  and  _591
REMARK  235  A    between atoms: _594  and  _596
REMARK  236  A    between atoms: _596  and  _597
REMARK  237  A    between atoms: _600  and  _602
REMARK  238  A    between atoms: _602  and  _603
REMARK  239  A    between atoms: _602  and  _605
REMARK  240  A    between atoms: _605  and  _606
REMARK                            x       y       z     vdW  Elec       q    Type
REMARK                         _______ _______ _______ _____ _____    ______ ____
ROOT
ATOM      1  O   HOH     1     -37.249   2.192  -6.319  0.00  0.00    +0.000 OA
ENDROOT
TORSDOF 0
REMARK  Name = ../refined-set-2016/4ua8/4ua8_pocket.pdb
REMARK  240 active torsions:
REMARK  status: ('A' for Active; 'I' for Inactive)
REMARK    1  A    between atoms: _1  and  _3
REMARK    2  A    between atoms: _3  and  _4
REMARK    3  A    between atoms: _7  and  _8
REMARK    4  A    between atoms: _13  and  _15
REMARK    5  A    between atoms: _15  and  _16
REMARK    6  A    between atoms: _19  and  _21
REMARK    7  A    between atoms: _21  and  _22
REMARK    8  A    between atoms: _21  and  _24
REMARK    9  A    between atoms: _24  and  _25
REMARK   10  A    between atoms: _25  and  _26
REMARK   11  A    between atoms: _29  and  _31
REMARK   12  A    between atoms: _31  and  _32
REMARK   13  A    between atoms: _31  and  _34
REMARK   14  A    between atoms: _34  and  _35
REMARK   15  A    between atoms: _38  and  _40
REMARK   16  A    between atoms: _40  and  _41
REMARK   17  A    between atoms: _40  and  _43
REMARK   18  A    between atoms: _43  and  _44
REMARK   19  A    between atoms: _46  and  _48
REMARK   20  A    between atoms: _48  and  _49
REMARK   21  A    between atoms: _48  and  _51
REMARK   22  A    between atoms: _51  and  _52
REMARK   23  A    between atoms: _54  and  _56
REMARK   24  A    between atoms: _56  and  _57
REMARK   25  A    between atoms: _56  and  _59
REMARK   26  A    between atoms: _59  and  _60
REMARK   27  A    between atoms: _60  and  _61
REMARK   28  A    between atoms: _64  and  _66
REMARK   29  A    between atoms: _66  and  _67
REMARK   30  A    between atoms: _66  and  _69
REMARK   31  A    between atoms: _69  and  _70
REMARK   32  A    between atoms: _72  and  _74
REMARK   33  A    between atoms: _74  and  _75
REMARK   34  A    between atoms: _74  and  _77
REMARK   35  A    between atoms: _77  and  _78
REMARK   36  A    between atoms: _81  and  _83
REMARK   37  A    between atoms: _83  and  _84
REMARK   38  A    between atoms: _87  and  _89
REMARK   39  A    between atoms: _89  and  _90
REMARK   40  A    between atoms: _89  and  _92
REMARK   41  A    between atoms: _92  and  _93
REMARK   42  A    between atoms: _93  and  _94
REMARK   43  A    between atoms: _94  and  _95
REMARK   44  A    between atoms: _95  and  _96
REMARK   45  A    between atoms: _100  and  _102
REMARK   46  A    between atoms: _102  and  _103
REMARK   47  A    between atoms: _102  and  _105
REMARK   48  A    between atoms: _105  and  _106
REMARK   49  A    between atoms: _109  and  _111
REMARK   50  A    between atoms: _111  and  _112
REMARK   51  A    between atoms: _111  and  _114
REMARK   52  A    between atoms: _114  and  _115
REMARK   53  A    between atoms: _115  and  _116
REMARK   54  A    between atoms: _118  and  _120
REMARK   55  A    between atoms: _120  and  _121
REMARK   56  A    between atoms: _120  and  _123
REMARK   57  A    between atoms: _123  and  _124
REMARK   58  A    between atoms: _130  and  _132
REMARK   59  A    between atoms: _132  and  _133
REMARK   60  A    between atoms: _136  and  _138
REMARK   61  A    between atoms: _138  and  _139
REMARK   62  A    between atoms: _138  and  _141
REMARK   63  A    between atoms: _141  and  _142
REMARK   64  A    between atoms: _147  and  _149
REMARK   65  A    between atoms: _149  and  _150
REMARK   66  A    between atoms: _149  and  _152
REMARK   67  A    between atoms: _152  and  _153
REMARK   68  A    between atoms: _156  and  _158
REMARK   69  A    between atoms: _158  and  _159
REMARK   70  A    between atoms: _158  and  _161
REMARK   71  A    between atoms: _161  and  _162
REMARK   72  A    between atoms: _162  and  _163
REMARK   73  A    between atoms: _168  and  _170
REMARK   74  A    between atoms: _170  and  _171
REMARK   75  A    between atoms: _170  and  _173
REMARK   76  A    between atoms: _173  and  _174
REMARK   77  A    between atoms: _178  and  _179
REMARK   78  A    between atoms: _184  and  _186
REMARK   79  A    between atoms: _186  and  _187
REMARK   80  A    between atoms: _186  and  _189
REMARK   81  A    between atoms: _189  and  _190
REMARK   82  A    between atoms: _195  and  _196
REMARK   83  A    between atoms: _198  and  _200
REMARK   84  A    between atoms: _200  and  _201
REMARK   85  A    between atoms: _200  and  _203
REMARK   86  A    between atoms: _203  and  _204
REMARK   87  A    between atoms: _207  and  _209
REMARK   88  A    between atoms: _209  and  _210
REMARK   89  A    between atoms: _209  and  _212
REMARK   90  A    between atoms: _212  and  _213
REMARK   91  A    between atoms: _215  and  _217
REMARK   92  A    between atoms: _217  and  _218
REMARK   93  A    between atoms: _217  and  _220
REMARK   94  A    between atoms: _220  and  _221
REMARK   95  A    between atoms: _226  and  _228
REMARK   96  A    between atoms: _228  and  _229
REMARK   97  A    between atoms: _228  and  _231
REMARK   98  A    between atoms: _231  and  _232
REMARK   99  A    between atoms: _235  and  _237
REMARK  100  A    between atoms: _237  and  _238
REMARK  101  A    between atoms: _237  and  _240
REMARK  102  A    between atoms: _240  and  _241
REMARK  103  A    between atoms: _252  and  _253
REMARK  104  A    between atoms: _258  and  _260
REMARK  105  A    between atoms: _260  and  _261
REMARK  106  A    between atoms: _260  and  _263
REMARK  107  A    between atoms: _263  and  _264
REMARK  108  A    between atoms: _267  and  _269
REMARK  109  A    between atoms: _269  and  _270
REMARK  110  A    between atoms: _269  and  _272
REMARK  111  A    between atoms: _272  and  _273
REMARK  112  A    between atoms: _278  and  _280
REMARK  113  A    between atoms: _280  and  _281
REMARK  114  A    between atoms: _283  and  _285
REMARK  115  A    between atoms: _285  and  _286
REMARK  116  A    between atoms: _285  and  _288
REMARK  117  A    between atoms: _288  and  _289
REMARK  118  A    between atoms: _299  and  _301
REMARK  119  A    between atoms: _301  and  _302
REMARK  120  A    between atoms: _301  and  _304
REMARK  121  A    between atoms: _304  and  _305
REMARK  122  A    between atoms: _310  and  _311
REMARK  123  A    between atoms: _313  and  _315
REMARK  124  A    between atoms: _315  and  _316
REMARK  125  A    between atoms: _315  and  _318
REMARK  126  A    between atoms: _318  and  _319
REMARK  127  A    between atoms: _322  and  _324
REMARK  128  A    between atoms: _324  and  _325
REMARK  129  A    between atoms: _324  and  _327
REMARK  130  A    between atoms: _327  and  _328
REMARK  131  A    between atoms: _333  and  _335
REMARK  132  A    between atoms: _335  and  _336
REMARK  133  A    between atoms: _335  and  _338
REMARK  134  A    between atoms: _338  and  _339
REMARK  135  A    between atoms: _344  and  _346
REMARK  136  A    between atoms: _346  and  _347
REMARK  137  A    between atoms: _346  and  _349
REMARK  138  A    between atoms: _349  and  _350
REMARK  139  A    between atoms: _350  and  _351
REMARK  140  A    between atoms: _354  and  _356
REMARK  141  A    between atoms: _356  and  _357
REMARK  142  A    between atoms: _359  and  _361
REMARK  143  A    between atoms: _361  and  _362
REMARK  144  A    between atoms: _361  and  _364
REMARK  145  A    between atoms: _364  and  _365
REMARK  146  A    between atoms: _367  and  _369
REMARK  147  A    between atoms: _369  and  _370
REMARK  148  A    between atoms: _369  and  _372
REMARK  149  A    between atoms: _372  and  _373
REMARK  150  A    between atoms: _378  and  _379
REMARK  151  A    between atoms: _381  and  _383
REMARK  152  A    between atoms: _383  and  _384
REMARK  153  A    between atoms: _383  and  _386
REMARK  154  A    between atoms: _386  and  _387
REMARK  155  A    between atoms: _392  and  _394
REMARK  156  A    between atoms: _394  and  _395
REMARK  157  A    between atoms: _397  and  _399
REMARK  158  A    between atoms: _399  and  _400
REMARK  159  A    between atoms: _399  and  _402
REMARK  160  A    between atoms: _402  and  _403
REMARK  161  A    between atoms: _408  and  _410
REMARK  162  A    between atoms: _410  and  _411
REMARK  163  A    between atoms: _410  and  _413
REMARK  164  A    between atoms: _413  and  _414
REMARK  165  A    between atoms: _424  and  _426
REMARK  166  A    between atoms: _426  and  _427
REMARK  167  A    between atoms: _426  and  _429
REMARK  168  A    between atoms: _429  and  _430
REMARK  169  A    between atoms: _435  and  _437
REMARK  170  A    between atoms: _437  and  _438
REMARK  171  A    between atoms: _437  and  _440
REMARK  172  A    between atoms: _440  and  _441
REMARK  173  A    between atoms: _441  and  _442
REMARK  174  A    between atoms: _442  and  _443
REMARK  175  A    between atoms: _443  and  _444
REMARK  176  A    between atoms: _448  and  _450
REMARK  177  A    between atoms: _450  and  _451
REMARK  178  A    between atoms: _450  and  _453
REMARK  179  A    between atoms: _453  and  _454
REMARK  180  A    between atoms: _460  and  _462
REMARK  181  A    between atoms: _462  and  _463
REMARK  182  A    between atoms: _465  and  _467
REMARK  183  A    between atoms: _467  and  _468
REMARK  184  A    between atoms: _467  and  _470
REMARK  185  A    between atoms: _470  and  _471
REMARK  186  A    between atoms: _473  and  _475
REMARK  187  A    between atoms: _475  and  _476
REMARK  188  A    between atoms: _475  and  _478
REMARK  189  A    between atoms: _478  and  _479
REMARK  190  A    between atoms: _479  and  _480
REMARK  191  A    between atoms: _480  and  _481
REMARK  192  A    between atoms: _481  and  _482
REMARK  193  A    between atoms: _486  and  _488
REMARK  194  A    between atoms: _488  and  _489
REMARK  195  A    between atoms: _488  and  _491
REMARK  196  A    between atoms: _491  and  _492
REMARK  197  A    between atoms: _497  and  _499
REMARK  198  A    between atoms: _499  and  _500
REMARK  199  A    between atoms: _499  and  _502
REMARK  200  A    between atoms: _502  and  _503
REMARK  201  A    between atoms: _503  and  _504
REMARK  202  A    between atoms: _504  and  _505
REMARK  203  A    between atoms: _514  and  _516
REMARK  204  A    between atoms: _516  and  _517
REMARK  205  A    between atoms: _516  and  _519
REMARK  206  A    between atoms: _519  and  _520
REMARK  207  A    between atoms: _520  and  _521
REMARK  208  A    between atoms: _526  and  _528
REMARK  209  A    between atoms: _528  and  _529
REMARK  210  A    between atoms: _528  and  _531
REMARK  211  A    between atoms: _531  and  _532
REMARK  212  A    between atoms: _532  and  _533
REMARK  213  A    between atoms: _538  and  _540
REMARK  214  A    between atoms: _540  and  _541
REMARK  215  A    between atoms: _540  and  _543
REMARK  216  A    between atoms: _543  and  _544
REMARK  217  A    between atoms: _544  and  _545
REMARK  218  A    between atoms: _547  and  _549
REMARK  219  A    between atoms: _549  and  _550
REMARK  220  A    between atoms: _549  and  _552
REMARK  221  A    between atoms: _552  and  _553
REMARK  222  A    between atoms: _555  and  _557
REMARK  223  A    between atoms: _557  and  _558
REMARK  224  A    between atoms: _557  and  _560
REMARK  225  A    between atoms: _560  and  _561
REMARK  226  A    between atoms: _566  and  _567
REMARK  227  A    between atoms: _569  and  _571
REMARK  228  A    between atoms: _571  and  _572
REMARK  229  A    between atoms: _571  and  _574
REMARK  230  A    between atoms: _574  and  _575
REMARK  231  A    between atoms: _585  and  _587
REMARK  232  A    between atoms: _587  and  _588
REMARK  233  A    between atoms: _587  and  _590
REMARK  234  A    between atoms: _590  and  _591
REMARK  235  A    between atoms: _594  and  _596
REMARK  236  A    between atoms: _596  and  _597
REMARK  237  A    between atoms: _600  and  _602
REMARK  238  A    between atoms: _602  and  _603
REMARK  239  A    between atoms: _602  and  _605
REMARK  240  A    between atoms: _605  and  _606
REMARK                            x       y       z     vdW  Elec       q    Type
REMARK                         _______ _______ _______ _____ _____    ______ ____
ROOT
ATOM      1  O   HOH     1     -26.517  10.686 -13.955  0.00  0.00    +0.000 OA
ENDROOT
TORSDOF 0
REMARK  Name = ../refined-set-2016/4ua8/4ua8_pocket.pdb
REMARK  240 active torsions:
REMARK  status: ('A' for Active; 'I' for Inactive)
REMARK    1  A    between atoms: _1  and  _3
REMARK    2  A    between atoms: _3  and  _4
REMARK    3  A    between atoms: _7  and  _8
REMARK    4  A    between atoms: _13  and  _15
REMARK    5  A    between atoms: _15  and  _16
REMARK    6  A    between atoms: _19  and  _21
REMARK    7  A    between atoms: _21  and  _22
REMARK    8  A    between atoms: _21  and  _24
REMARK    9  A    between atoms: _24  and  _25
REMARK   10  A    between atoms: _25  and  _26
REMARK   11  A    between atoms: _29  and  _31
REMARK   12  A    between atoms: _31  and  _32
REMARK   13  A    between atoms: _31  and  _34
REMARK   14  A    between atoms: _34  and  _35
REMARK   15  A    between atoms: _38  and  _40
REMARK   16  A    between atoms: _40  and  _41
REMARK   17  A    between atoms: _40  and  _43
REMARK   18  A    between atoms: _43  and  _44
REMARK   19  A    between atoms: _46  and  _48
REMARK   20  A    between atoms: _48  and  _49
REMARK   21  A    between atoms: _48  and  _51
REMARK   22  A    between atoms: _51  and  _52
REMARK   23  A    between atoms: _54  and  _56
REMARK   24  A    between atoms: _56  and  _57
REMARK   25  A    between atoms: _56  and  _59
REMARK   26  A    between atoms: _59  and  _60
REMARK   27  A    between atoms: _60  and  _61
REMARK   28  A    between atoms: _64  and  _66
REMARK   29  A    between atoms: _66  and  _67
REMARK   30  A    between atoms: _66  and  _69
REMARK   31  A    between atoms: _69  and  _70
REMARK   32  A    between atoms: _72  and  _74
REMARK   33  A    between atoms: _74  and  _75
REMARK   34  A    between atoms: _74  and  _77
REMARK   35  A    between atoms: _77  and  _78
REMARK   36  A    between atoms: _81  and  _83
REMARK   37  A    between atoms: _83  and  _84
REMARK   38  A    between atoms: _87  and  _89
REMARK   39  A    between atoms: _89  and  _90
REMARK   40  A    between atoms: _89  and  _92
REMARK   41  A    between atoms: _92  and  _93
REMARK   42  A    between atoms: _93  and  _94
REMARK   43  A    between atoms: _94  and  _95
REMARK   44  A    between atoms: _95  and  _96
REMARK   45  A    between atoms: _100  and  _102
REMARK   46  A    between atoms: _102  and  _103
REMARK   47  A    between atoms: _102  and  _105
REMARK   48  A    between atoms: _105  and  _106
REMARK   49  A    between atoms: _109  and  _111
REMARK   50  A    between atoms: _111  and  _112
REMARK   51  A    between atoms: _111  and  _114
REMARK   52  A    between atoms: _114  and  _115
REMARK   53  A    between atoms: _115  and  _116
REMARK   54  A    between atoms: _118  and  _120
REMARK   55  A    between atoms: _120  and  _121
REMARK   56  A    between atoms: _120  and  _123
REMARK   57  A    between atoms: _123  and  _124
REMARK   58  A    between atoms: _130  and  _132
REMARK   59  A    between atoms: _132  and  _133
REMARK   60  A    between atoms: _136  and  _138
REMARK   61  A    between atoms: _138  and  _139
REMARK   62  A    between atoms: _138  and  _141
REMARK   63  A    between atoms: _141  and  _142
REMARK   64  A    between atoms: _147  and  _149
REMARK   65  A    between atoms: _149  and  _150
REMARK   66  A    between atoms: _149  and  _152
REMARK   67  A    between atoms: _152  and  _153
REMARK   68  A    between atoms: _156  and  _158
REMARK   69  A    between atoms: _158  and  _159
REMARK   70  A    between atoms: _158  and  _161
REMARK   71  A    between atoms: _161  and  _162
REMARK   72  A    between atoms: _162  and  _163
REMARK   73  A    between atoms: _168  and  _170
REMARK   74  A    between atoms: _170  and  _171
REMARK   75  A    between atoms: _170  and  _173
REMARK   76  A    between atoms: _173  and  _174
REMARK   77  A    between atoms: _178  and  _179
REMARK   78  A    between atoms: _184  and  _186
REMARK   79  A    between atoms: _186  and  _187
REMARK   80  A    between atoms: _186  and  _189
REMARK   81  A    between atoms: _189  and  _190
REMARK   82  A    between atoms: _195  and  _196
REMARK   83  A    between atoms: _198  and  _200
REMARK   84  A    between atoms: _200  and  _201
REMARK   85  A    between atoms: _200  and  _203
REMARK   86  A    between atoms: _203  and  _204
REMARK   87  A    between atoms: _207  and  _209
REMARK   88  A    between atoms: _209  and  _210
REMARK   89  A    between atoms: _209  and  _212
REMARK   90  A    between atoms: _212  and  _213
REMARK   91  A    between atoms: _215  and  _217
REMARK   92  A    between atoms: _217  and  _218
REMARK   93  A    between atoms: _217  and  _220
REMARK   94  A    between atoms: _220  and  _221
REMARK   95  A    between atoms: _226  and  _228
REMARK   96  A    between atoms: _228  and  _229
REMARK   97  A    between atoms: _228  and  _231
REMARK   98  A    between atoms: _231  and  _232
REMARK   99  A    between atoms: _235  and  _237
REMARK  100  A    between atoms: _237  and  _238
REMARK  101  A    between atoms: _237  and  _240
REMARK  102  A    between atoms: _240  and  _241
REMARK  103  A    between atoms: _252  and  _253
REMARK  104  A    between atoms: _258  and  _260
REMARK  105  A    between atoms: _260  and  _261
REMARK  106  A    between atoms: _260  and  _263
REMARK  107  A    between atoms: _263  and  _264
REMARK  108  A    between atoms: _267  and  _269
REMARK  109  A    between atoms: _269  and  _270
REMARK  110  A    between atoms: _269  and  _272
REMARK  111  A    between atoms: _272  and  _273
REMARK  112  A    between atoms: _278  and  _280
REMARK  113  A    between atoms: _280  and  _281
REMARK  114  A    between atoms: _283  and  _285
REMARK  115  A    between atoms: _285  and  _286
REMARK  116  A    between atoms: _285  and  _288
REMARK  117  A    between atoms: _288  and  _289
REMARK  118  A    between atoms: _299  and  _301
REMARK  119  A    between atoms: _301  and  _302
REMARK  120  A    between atoms: _301  and  _304
REMARK  121  A    between atoms: _304  and  _305
REMARK  122  A    between atoms: _310  and  _311
REMARK  123  A    between atoms: _313  and  _315
REMARK  124  A    between atoms: _315  and  _316
REMARK  125  A    between atoms: _315  and  _318
REMARK  126  A    between atoms: _318  and  _319
REMARK  127  A    between atoms: _322  and  _324
REMARK  128  A    between atoms: _324  and  _325
REMARK  129  A    between atoms: _324  and  _327
REMARK  130  A    between atoms: _327  and  _328
REMARK  131  A    between atoms: _333  and  _335
REMARK  132  A    between atoms: _335  and  _336
REMARK  133  A    between atoms: _335  and  _338
REMARK  134  A    between atoms: _338  and  _339
REMARK  135  A    between atoms: _344  and  _346
REMARK  136  A    between atoms: _346  and  _347
REMARK  137  A    between atoms: _346  and  _349
REMARK  138  A    between atoms: _349  and  _350
REMARK  139  A    between atoms: _350  and  _351
REMARK  140  A    between atoms: _354  and  _356
REMARK  141  A    between atoms: _356  and  _357
REMARK  142  A    between atoms: _359  and  _361
REMARK  143  A    between atoms: _361  and  _362
REMARK  144  A    between atoms: _361  and  _364
REMARK  145  A    between atoms: _364  and  _365
REMARK  146  A    between atoms: _367  and  _369
REMARK  147  A    between atoms: _369  and  _370
REMARK  148  A    between atoms: _369  and  _372
REMARK  149  A    between atoms: _372  and  _373
REMARK  150  A    between atoms: _378  and  _379
REMARK  151  A    between atoms: _381  and  _383
REMARK  152  A    between atoms: _383  and  _384
REMARK  153  A    between atoms: _383  and  _386
REMARK  154  A    between atoms: _386  and  _387
REMARK  155  A    between atoms: _392  and  _394
REMARK  156  A    between atoms: _394  and  _395
REMARK  157  A    between atoms: _397  and  _399
REMARK  158  A    between atoms: _399  and  _400
REMARK  159  A    between atoms: _399  and  _402
REMARK  160  A    between atoms: _402  and  _403
REMARK  161  A    between atoms: _408  and  _410
REMARK  162  A    between atoms: _410  and  _411
REMARK  163  A    between atoms: _410  and  _413
REMARK  164  A    between atoms: _413  and  _414
REMARK  165  A    between atoms: _424  and  _426
REMARK  166  A    between atoms: _426  and  _427
REMARK  167  A    between atoms: _426  and  _429
REMARK  168  A    between atoms: _429  and  _430
REMARK  169  A    between atoms: _435  and  _437
REMARK  170  A    between atoms: _437  and  _438
REMARK  171  A    between atoms: _437  and  _440
REMARK  172  A    between atoms: _440  and  _441
REMARK  173  A    between atoms: _441  and  _442
REMARK  174  A    between atoms: _442  and  _443
REMARK  175  A    between atoms: _443  and  _444
REMARK  176  A    between atoms: _448  and  _450
REMARK  177  A    between atoms: _450  and  _451
REMARK  178  A    between atoms: _450  and  _453
REMARK  179  A    between atoms: _453  and  _454
REMARK  180  A    between atoms: _460  and  _462
REMARK  181  A    between atoms: _462  and  _463
REMARK  182  A    between atoms: _465  and  _467
REMARK  183  A    between atoms: _467  and  _468
REMARK  184  A    between atoms: _467  and  _470
REMARK  185  A    between atoms: _470  and  _471
REMARK  186  A    between atoms: _473  and  _475
REMARK  187  A    between atoms: _475  and  _476
REMARK  188  A    between atoms: _475  and  _478
REMARK  189  A    between atoms: _478  and  _479
REMARK  190  A    between atoms: _479  and  _480
REMARK  191  A    between atoms: _480  and  _481
REMARK  192  A    between atoms: _481  and  _482
REMARK  193  A    between atoms: _486  and  _488
REMARK  194  A    between atoms: _488  and  _489
REMARK  195  A    between atoms: _488  and  _491
REMARK  196  A    between atoms: _491  and  _492
REMARK  197  A    between atoms: _497  and  _499
REMARK  198  A    between atoms: _499  and  _500
REMARK  199  A    between atoms: _499  and  _502
REMARK  200  A    between atoms: _502  and  _503
REMARK  201  A    between atoms: _503  and  _504
REMARK  202  A    between atoms: _504  and  _505
REMARK  203  A    between atoms: _514  and  _516
REMARK  204  A    between atoms: _516  and  _517
REMARK  205  A    between atoms: _516  and  _519
REMARK  206  A    between atoms: _519  and  _520
REMARK  207  A    between atoms: _520  and  _521
REMARK  208  A    between atoms: _526  and  _528
REMARK  209  A    between atoms: _528  and  _529
REMARK  210  A    between atoms: _528  and  _531
REMARK  211  A    between atoms: _531  and  _532
REMARK  212  A    between atoms: _532  and  _533
REMARK  213  A    between atoms: _538  and  _540
REMARK  214  A    between atoms: _540  and  _541
REMARK  215  A    between atoms: _540  and  _543
REMARK  216  A    between atoms: _543  and  _544
REMARK  217  A    between atoms: _544  and  _545
REMARK  218  A    between atoms: _547  and  _549
REMARK  219  A    between atoms: _549  and  _550
REMARK  220  A    between atoms: _549  and  _552
REMARK  221  A    between atoms: _552  and  _553
REMARK  222  A    between atoms: _555  and  _557
REMARK  223  A    between atoms: _557  and  _558
REMARK  224  A    between atoms: _557  and  _560
REMARK  225  A    between atoms: _560  and  _561
REMARK  226  A    between atoms: _566  and  _567
REMARK  227  A    between atoms: _569  and  _571
REMARK  228  A    between atoms: _571  and  _572
REMARK  229  A    between atoms: _571  and  _574
REMARK  230  A    between atoms: _574  and  _575
REMARK  231  A    between atoms: _585  and  _587
REMARK  232  A    between atoms: _587  and  _588
REMARK  233  A    between atoms: _587  and  _590
REMARK  234  A    between atoms: _590  and  _591
REMARK  235  A    between atoms: _594  and  _596
REMARK  236  A    between atoms: _596  and  _597
REMARK  237  A    between atoms: _600  and  _602
REMARK  238  A    between atoms: _602  and  _603
REMARK  239  A    between atoms: _602  and  _605
REMARK  240  A    between atoms: _605  and  _606
REMARK                            x       y       z     vdW  Elec       q    Type
REMARK                         _______ _______ _______ _____ _____    ______ ____
ROOT
ATOM      1  O   HOH     1     -26.509   3.756 -11.310  0.00  0.00    +0.000 OA
ENDROOT
TORSDOF 0
REMARK  Name = ../refined-set-2016/4ua8/4ua8_pocket.pdb
REMARK  240 active torsions:
REMARK  status: ('A' for Active; 'I' for Inactive)
REMARK    1  A    between atoms: _1  and  _3
REMARK    2  A    between atoms: _3  and  _4
REMARK    3  A    between atoms: _7  and  _8
REMARK    4  A    between atoms: _13  and  _15
REMARK    5  A    between atoms: _15  and  _16
REMARK    6  A    between atoms: _19  and  _21
REMARK    7  A    between atoms: _21  and  _22
REMARK    8  A    between atoms: _21  and  _24
REMARK    9  A    between atoms: _24  and  _25
REMARK   10  A    between atoms: _25  and  _26
REMARK   11  A    between atoms: _29  and  _31
REMARK   12  A    between atoms: _31  and  _32
REMARK   13  A    between atoms: _31  and  _34
REMARK   14  A    between atoms: _34  and  _35
REMARK   15  A    between atoms: _38  and  _40
REMARK   16  A    between atoms: _40  and  _41
REMARK   17  A    between atoms: _40  and  _43
REMARK   18  A    between atoms: _43  and  _44
REMARK   19  A    between atoms: _46  and  _48
REMARK   20  A    between atoms: _48  and  _49
REMARK   21  A    between atoms: _48  and  _51
REMARK   22  A    between atoms: _51  and  _52
REMARK   23  A    between atoms: _54  and  _56
REMARK   24  A    between atoms: _56  and  _57
REMARK   25  A    between atoms: _56  and  _59
REMARK   26  A    between atoms: _59  and  _60
REMARK   27  A    between atoms: _60  and  _61
REMARK   28  A    between atoms: _64  and  _66
REMARK   29  A    between atoms: _66  and  _67
REMARK   30  A    between atoms: _66  and  _69
REMARK   31  A    between atoms: _69  and  _70
REMARK   32  A    between atoms: _72  and  _74
REMARK   33  A    between atoms: _74  and  _75
REMARK   34  A    between atoms: _74  and  _77
REMARK   35  A    between atoms: _77  and  _78
REMARK   36  A    between atoms: _81  and  _83
REMARK   37  A    between atoms: _83  and  _84
REMARK   38  A    between atoms: _87  and  _89
REMARK   39  A    between atoms: _89  and  _90
REMARK   40  A    between atoms: _89  and  _92
REMARK   41  A    between atoms: _92  and  _93
REMARK   42  A    between atoms: _93  and  _94
REMARK   43  A    between atoms: _94  and  _95
REMARK   44  A    between atoms: _95  and  _96
REMARK   45  A    between atoms: _100  and  _102
REMARK   46  A    between atoms: _102  and  _103
REMARK   47  A    between atoms: _102  and  _105
REMARK   48  A    between atoms: _105  and  _106
REMARK   49  A    between atoms: _109  and  _111
REMARK   50  A    between atoms: _111  and  _112
REMARK   51  A    between atoms: _111  and  _114
REMARK   52  A    between atoms: _114  and  _115
REMARK   53  A    between atoms: _115  and  _116
REMARK   54  A    between atoms: _118  and  _120
REMARK   55  A    between atoms: _120  and  _121
REMARK   56  A    between atoms: _120  and  _123
REMARK   57  A    between atoms: _123  and  _124
REMARK   58  A    between atoms: _130  and  _132
REMARK   59  A    between atoms: _132  and  _133
REMARK   60  A    between atoms: _136  and  _138
REMARK   61  A    between atoms: _138  and  _139
REMARK   62  A    between atoms: _138  and  _141
REMARK   63  A    between atoms: _141  and  _142
REMARK   64  A    between atoms: _147  and  _149
REMARK   65  A    between atoms: _149  and  _150
REMARK   66  A    between atoms: _149  and  _152
REMARK   67  A    between atoms: _152  and  _153
REMARK   68  A    between atoms: _156  and  _158
REMARK   69  A    between atoms: _158  and  _159
REMARK   70  A    between atoms: _158  and  _161
REMARK   71  A    between atoms: _161  and  _162
REMARK   72  A    between atoms: _162  and  _163
REMARK   73  A    between atoms: _168  and  _170
REMARK   74  A    between atoms: _170  and  _171
REMARK   75  A    between atoms: _170  and  _173
REMARK   76  A    between atoms: _173  and  _174
REMARK   77  A    between atoms: _178  and  _179
REMARK   78  A    between atoms: _184  and  _186
REMARK   79  A    between atoms: _186  and  _187
REMARK   80  A    between atoms: _186  and  _189
REMARK   81  A    between atoms: _189  and  _190
REMARK   82  A    between atoms: _195  and  _196
REMARK   83  A    between atoms: _198  and  _200
REMARK   84  A    between atoms: _200  and  _201
REMARK   85  A    between atoms: _200  and  _203
REMARK   86  A    between atoms: _203  and  _204
REMARK   87  A    between atoms: _207  and  _209
REMARK   88  A    between atoms: _209  and  _210
REMARK   89  A    between atoms: _209  and  _212
REMARK   90  A    between atoms: _212  and  _213
REMARK   91  A    between atoms: _215  and  _217
REMARK   92  A    between atoms: _217  and  _218
REMARK   93  A    between atoms: _217  and  _220
REMARK   94  A    between atoms: _220  and  _221
REMARK   95  A    between atoms: _226  and  _228
REMARK   96  A    between atoms: _228  and  _229
REMARK   97  A    between atoms: _228  and  _231
REMARK   98  A    between atoms: _231  and  _232
REMARK   99  A    between atoms: _235  and  _237
REMARK  100  A    between atoms: _237  and  _238
REMARK  101  A    between atoms: _237  and  _240
REMARK  102  A    between atoms: _240  and  _241
REMARK  103  A    between atoms: _252  and  _253
REMARK  104  A    between atoms: _258  and  _260
REMARK  105  A    between atoms: _260  and  _261
REMARK  106  A    between atoms: _260  and  _263
REMARK  107  A    between atoms: _263  and  _264
REMARK  108  A    between atoms: _267  and  _269
REMARK  109  A    between atoms: _269  and  _270
REMARK  110  A    between atoms: _269  and  _272
REMARK  111  A    between atoms: _272  and  _273
REMARK  112  A    between atoms: _278  and  _280
REMARK  113  A    between atoms: _280  and  _281
REMARK  114  A    between atoms: _283  and  _285
REMARK  115  A    between atoms: _285  and  _286
REMARK  116  A    between atoms: _285  and  _288
REMARK  117  A    between atoms: _288  and  _289
REMARK  118  A    between atoms: _299  and  _301
REMARK  119  A    between atoms: _301  and  _302
REMARK  120  A    between atoms: _301  and  _304
REMARK  121  A    between atoms: _304  and  _305
REMARK  122  A    between atoms: _310  and  _311
REMARK  123  A    between atoms: _313  and  _315
REMARK  124  A    between atoms: _315  and  _316
REMARK  125  A    between atoms: _315  and  _318
REMARK  126  A    between atoms: _318  and  _319
REMARK  127  A    between atoms: _322  and  _324
REMARK  128  A    between atoms: _324  and  _325
REMARK  129  A    between atoms: _324  and  _327
REMARK  130  A    between atoms: _327  and  _328
REMARK  131  A    between atoms: _333  and  _335
REMARK  132  A    between atoms: _335  and  _336
REMARK  133  A    between atoms: _335  and  _338
REMARK  134  A    between atoms: _338  and  _339
REMARK  135  A    between atoms: _344  and  _346
REMARK  136  A    between atoms: _346  and  _347
REMARK  137  A    between atoms: _346  and  _349
REMARK  138  A    between atoms: _349  and  _350
REMARK  139  A    between atoms: _350  and  _351
REMARK  140  A    between atoms: _354  and  _356
REMARK  141  A    between atoms: _356  and  _357
REMARK  142  A    between atoms: _359  and  _361
REMARK  143  A    between atoms: _361  and  _362
REMARK  144  A    between atoms: _361  and  _364
REMARK  145  A    between atoms: _364  and  _365
REMARK  146  A    between atoms: _367  and  _369
REMARK  147  A    between atoms: _369  and  _370
REMARK  148  A    between atoms: _369  and  _372
REMARK  149  A    between atoms: _372  and  _373
REMARK  150  A    between atoms: _378  and  _379
REMARK  151  A    between atoms: _381  and  _383
REMARK  152  A    between atoms: _383  and  _384
REMARK  153  A    between atoms: _383  and  _386
REMARK  154  A    between atoms: _386  and  _387
REMARK  155  A    between atoms: _392  and  _394
REMARK  156  A    between atoms: _394  and  _395
REMARK  157  A    between atoms: _397  and  _399
REMARK  158  A    between atoms: _399  and  _400
REMARK  159  A    between atoms: _399  and  _402
REMARK  160  A    between atoms: _402  and  _403
REMARK  161  A    between atoms: _408  and  _410
REMARK  162  A    between atoms: _410  and  _411
REMARK  163  A    between atoms: _410  and  _413
REMARK  164  A    between atoms: _413  and  _414
REMARK  165  A    between atoms: _424  and  _426
REMARK  166  A    between atoms: _426  and  _427
REMARK  167  A    between atoms: _426  and  _429
REMARK  168  A    between atoms: _429  and  _430
REMARK  169  A    between atoms: _435  and  _437
REMARK  170  A    between atoms: _437  and  _438
REMARK  171  A    between atoms: _437  and  _440
REMARK  172  A    between atoms: _440  and  _441
REMARK  173  A    between atoms: _441  and  _442
REMARK  174  A    between atoms: _442  and  _443
REMARK  175  A    between atoms: _443  and  _444
REMARK  176  A    between atoms: _448  and  _450
REMARK  177  A    between atoms: _450  and  _451
REMARK  178  A    between atoms: _450  and  _453
REMARK  179  A    between atoms: _453  and  _454
REMARK  180  A    between atoms: _460  and  _462
REMARK  181  A    between atoms: _462  and  _463
REMARK  182  A    between atoms: _465  and  _467
REMARK  183  A    between atoms: _467  and  _468
REMARK  184  A    between atoms: _467  and  _470
REMARK  185  A    between atoms: _470  and  _471
REMARK  186  A    between atoms: _473  and  _475
REMARK  187  A    between atoms: _475  and  _476
REMARK  188  A    between atoms: _475  and  _478
REMARK  189  A    between atoms: _478  and  _479
REMARK  190  A    between atoms: _479  and  _480
REMARK  191  A    between atoms: _480  and  _481
REMARK  192  A    between atoms: _481  and  _482
REMARK  193  A    between atoms: _486  and  _488
REMARK  194  A    between atoms: _488  and  _489
REMARK  195  A    between atoms: _488  and  _491
REMARK  196  A    between atoms: _491  and  _492
REMARK  197  A    between atoms: _497  and  _499
REMARK  198  A    between atoms: _499  and  _500
REMARK  199  A    between atoms: _499  and  _502
REMARK  200  A    between atoms: _502  and  _503
REMARK  201  A    between atoms: _503  and  _504
REMARK  202  A    between atoms: _504  and  _505
REMARK  203  A    between atoms: _514  and  _516
REMARK  204  A    between atoms: _516  and  _517
REMARK  205  A    between atoms: _516  and  _519
REMARK  206  A    between atoms: _519  and  _520
REMARK  207  A    between atoms: _520  and  _521
REMARK  208  A    between atoms: _526  and  _528
REMARK  209  A    between atoms: _528  and  _529
REMARK  210  A    between atoms: _528  and  _531
REMARK  211  A    between atoms: _531  and  _532
REMARK  212  A    between atoms: _532  and  _533
REMARK  213  A    between atoms: _538  and  _540
REMARK  214  A    between atoms: _540  and  _541
REMARK  215  A    between atoms: _540  and  _543
REMARK  216  A    between atoms: _543  and  _544
REMARK  217  A    between atoms: _544  and  _545
REMARK  218  A    between atoms: _547  and  _549
REMARK  219  A    between atoms: _549  and  _550
REMARK  220  A    between atoms: _549  and  _552
REMARK  221  A    between atoms: _552  and  _553
REMARK  222  A    between atoms: _555  and  _557
REMARK  223  A    between atoms: _557  and  _558
REMARK  224  A    between atoms: _557  and  _560
REMARK  225  A    between atoms: _560  and  _561
REMARK  226  A    between atoms: _566  and  _567
REMARK  227  A    between atoms: _569  and  _571
REMARK  228  A    between atoms: _571  and  _572
REMARK  229  A    between atoms: _571  and  _574
REMARK  230  A    between atoms: _574  and  _575
REMARK  231  A    between atoms: _585  and  _587
REMARK  232  A    between atoms: _587  and  _588
REMARK  233  A    between atoms: _587  and  _590
REMARK  234  A    between atoms: _590  and  _591
REMARK  235  A    between atoms: _594  and  _596
REMARK  236  A    between atoms: _596  and  _597
REMARK  237  A    between atoms: _600  and  _602
REMARK  238  A    between atoms: _602  and  _603
REMARK  239  A    between atoms: _602  and  _605
REMARK  240  A    between atoms: _605  and  _606
REMARK                            x       y       z     vdW  Elec       q    Type
REMARK                         _______ _______ _______ _____ _____    ______ ____
ROOT
ATOM      1  O   HOH     1     -30.910   7.279 -11.293  0.00  0.00    +0.000 OA
ENDROOT
TORSDOF 0
REMARK  Name = ../refined-set-2016/4ua8/4ua8_pocket.pdb
REMARK  240 active torsions:
REMARK  status: ('A' for Active; 'I' for Inactive)
REMARK    1  A    between atoms: _1  and  _3
REMARK    2  A    between atoms: _3  and  _4
REMARK    3  A    between atoms: _7  and  _8
REMARK    4  A    between atoms: _13  and  _15
REMARK    5  A    between atoms: _15  and  _16
REMARK    6  A    between atoms: _19  and  _21
REMARK    7  A    between atoms: _21  and  _22
REMARK    8  A    between atoms: _21  and  _24
REMARK    9  A    between atoms: _24  and  _25
REMARK   10  A    between atoms: _25  and  _26
REMARK   11  A    between atoms: _29  and  _31
REMARK   12  A    between atoms: _31  and  _32
REMARK   13  A    between atoms: _31  and  _34
REMARK   14  A    between atoms: _34  and  _35
REMARK   15  A    between atoms: _38  and  _40
REMARK   16  A    between atoms: _40  and  _41
REMARK   17  A    between atoms: _40  and  _43
REMARK   18  A    between atoms: _43  and  _44
REMARK   19  A    between atoms: _46  and  _48
REMARK   20  A    between atoms: _48  and  _49
REMARK   21  A    between atoms: _48  and  _51
REMARK   22  A    between atoms: _51  and  _52
REMARK   23  A    between atoms: _54  and  _56
REMARK   24  A    between atoms: _56  and  _57
REMARK   25  A    between atoms: _56  and  _59
REMARK   26  A    between atoms: _59  and  _60
REMARK   27  A    between atoms: _60  and  _61
REMARK   28  A    between atoms: _64  and  _66
REMARK   29  A    between atoms: _66  and  _67
REMARK   30  A    between atoms: _66  and  _69
REMARK   31  A    between atoms: _69  and  _70
REMARK   32  A    between atoms: _72  and  _74
REMARK   33  A    between atoms: _74  and  _75
REMARK   34  A    between atoms: _74  and  _77
REMARK   35  A    between atoms: _77  and  _78
REMARK   36  A    between atoms: _81  and  _83
REMARK   37  A    between atoms: _83  and  _84
REMARK   38  A    between atoms: _87  and  _89
REMARK   39  A    between atoms: _89  and  _90
REMARK   40  A    between atoms: _89  and  _92
REMARK   41  A    between atoms: _92  and  _93
REMARK   42  A    between atoms: _93  and  _94
REMARK   43  A    between atoms: _94  and  _95
REMARK   44  A    between atoms: _95  and  _96
REMARK   45  A    between atoms: _100  and  _102
REMARK   46  A    between atoms: _102  and  _103
REMARK   47  A    between atoms: _102  and  _105
REMARK   48  A    between atoms: _105  and  _106
REMARK   49  A    between atoms: _109  and  _111
REMARK   50  A    between atoms: _111  and  _112
REMARK   51  A    between atoms: _111  and  _114
REMARK   52  A    between atoms: _114  and  _115
REMARK   53  A    between atoms: _115  and  _116
REMARK   54  A    between atoms: _118  and  _120
REMARK   55  A    between atoms: _120  and  _121
REMARK   56  A    between atoms: _120  and  _123
REMARK   57  A    between atoms: _123  and  _124
REMARK   58  A    between atoms: _130  and  _132
REMARK   59  A    between atoms: _132  and  _133
REMARK   60  A    between atoms: _136  and  _138
REMARK   61  A    between atoms: _138  and  _139
REMARK   62  A    between atoms: _138  and  _141
REMARK   63  A    between atoms: _141  and  _142
REMARK   64  A    between atoms: _147  and  _149
REMARK   65  A    between atoms: _149  and  _150
REMARK   66  A    between atoms: _149  and  _152
REMARK   67  A    between atoms: _152  and  _153
REMARK   68  A    between atoms: _156  and  _158
REMARK   69  A    between atoms: _158  and  _159
REMARK   70  A    between atoms: _158  and  _161
REMARK   71  A    between atoms: _161  and  _162
REMARK   72  A    between atoms: _162  and  _163
REMARK   73  A    between atoms: _168  and  _170
REMARK   74  A    between atoms: _170  and  _171
REMARK   75  A    between atoms: _170  and  _173
REMARK   76  A    between atoms: _173  and  _174
REMARK   77  A    between atoms: _178  and  _179
REMARK   78  A    between atoms: _184  and  _186
REMARK   79  A    between atoms: _186  and  _187
REMARK   80  A    between atoms: _186  and  _189
REMARK   81  A    between atoms: _189  and  _190
REMARK   82  A    between atoms: _195  and  _196
REMARK   83  A    between atoms: _198  and  _200
REMARK   84  A    between atoms: _200  and  _201
REMARK   85  A    between atoms: _200  and  _203
REMARK   86  A    between atoms: _203  and  _204
REMARK   87  A    between atoms: _207  and  _209
REMARK   88  A    between atoms: _209  and  _210
REMARK   89  A    between atoms: _209  and  _212
REMARK   90  A    between atoms: _212  and  _213
REMARK   91  A    between atoms: _215  and  _217
REMARK   92  A    between atoms: _217  and  _218
REMARK   93  A    between atoms: _217  and  _220
REMARK   94  A    between atoms: _220  and  _221
REMARK   95  A    between atoms: _226  and  _228
REMARK   96  A    between atoms: _228  and  _229
REMARK   97  A    between atoms: _228  and  _231
REMARK   98  A    between atoms: _231  and  _232
REMARK   99  A    between atoms: _235  and  _237
REMARK  100  A    between atoms: _237  and  _238
REMARK  101  A    between atoms: _237  and  _240
REMARK  102  A    between atoms: _240  and  _241
REMARK  103  A    between atoms: _252  and  _253
REMARK  104  A    between atoms: _258  and  _260
REMARK  105  A    between atoms: _260  and  _261
REMARK  106  A    between atoms: _260  and  _263
REMARK  107  A    between atoms: _263  and  _264
REMARK  108  A    between atoms: _267  and  _269
REMARK  109  A    between atoms: _269  and  _270
REMARK  110  A    between atoms: _269  and  _272
REMARK  111  A    between atoms: _272  and  _273
REMARK  112  A    between atoms: _278  and  _280
REMARK  113  A    between atoms: _280  and  _281
REMARK  114  A    between atoms: _283  and  _285
REMARK  115  A    between atoms: _285  and  _286
REMARK  116  A    between atoms: _285  and  _288
REMARK  117  A    between atoms: _288  and  _289
REMARK  118  A    between atoms: _299  and  _301
REMARK  119  A    between atoms: _301  and  _302
REMARK  120  A    between atoms: _301  and  _304
REMARK  121  A    between atoms: _304  and  _305
REMARK  122  A    between atoms: _310  and  _311
REMARK  123  A    between atoms: _313  and  _315
REMARK  124  A    between atoms: _315  and  _316
REMARK  125  A    between atoms: _315  and  _318
REMARK  126  A    between atoms: _318  and  _319
REMARK  127  A    between atoms: _322  and  _324
REMARK  128  A    between atoms: _324  and  _325
REMARK  129  A    between atoms: _324  and  _327
REMARK  130  A    between atoms: _327  and  _328
REMARK  131  A    between atoms: _333  and  _335
REMARK  132  A    between atoms: _335  and  _336
REMARK  133  A    between atoms: _335  and  _338
REMARK  134  A    between atoms: _338  and  _339
REMARK  135  A    between atoms: _344  and  _346
REMARK  136  A    between atoms: _346  and  _347
REMARK  137  A    between atoms: _346  and  _349
REMARK  138  A    between atoms: _349  and  _350
REMARK  139  A    between atoms: _350  and  _351
REMARK  140  A    between atoms: _354  and  _356
REMARK  141  A    between atoms: _356  and  _357
REMARK  142  A    between atoms: _359  and  _361
REMARK  143  A    between atoms: _361  and  _362
REMARK  144  A    between atoms: _361  and  _364
REMARK  145  A    between atoms: _364  and  _365
REMARK  146  A    between atoms: _367  and  _369
REMARK  147  A    between atoms: _369  and  _370
REMARK  148  A    between atoms: _369  and  _372
REMARK  149  A    between atoms: _372  and  _373
REMARK  150  A    between atoms: _378  and  _379
REMARK  151  A    between atoms: _381  and  _383
REMARK  152  A    between atoms: _383  and  _384
REMARK  153  A    between atoms: _383  and  _386
REMARK  154  A    between atoms: _386  and  _387
REMARK  155  A    between atoms: _392  and  _394
REMARK  156  A    between atoms: _394  and  _395
REMARK  157  A    between atoms: _397  and  _399
REMARK  158  A    between atoms: _399  and  _400
REMARK  159  A    between atoms: _399  and  _402
REMARK  160  A    between atoms: _402  and  _403
REMARK  161  A    between atoms: _408  and  _410
REMARK  162  A    between atoms: _410  and  _411
REMARK  163  A    between atoms: _410  and  _413
REMARK  164  A    between atoms: _413  and  _414
REMARK  165  A    between atoms: _424  and  _426
REMARK  166  A    between atoms: _426  and  _427
REMARK  167  A    between atoms: _426  and  _429
REMARK  168  A    between atoms: _429  and  _430
REMARK  169  A    between atoms: _435  and  _437
REMARK  170  A    between atoms: _437  and  _438
REMARK  171  A    between atoms: _437  and  _440
REMARK  172  A    between atoms: _440  and  _441
REMARK  173  A    between atoms: _441  and  _442
REMARK  174  A    between atoms: _442  and  _443
REMARK  175  A    between atoms: _443  and  _444
REMARK  176  A    between atoms: _448  and  _450
REMARK  177  A    between atoms: _450  and  _451
REMARK  178  A    between atoms: _450  and  _453
REMARK  179  A    between atoms: _453  and  _454
REMARK  180  A    between atoms: _460  and  _462
REMARK  181  A    between atoms: _462  and  _463
REMARK  182  A    between atoms: _465  and  _467
REMARK  183  A    between atoms: _467  and  _468
REMARK  184  A    between atoms: _467  and  _470
REMARK  185  A    between atoms: _470  and  _471
REMARK  186  A    between atoms: _473  and  _475
REMARK  187  A    between atoms: _475  and  _476
REMARK  188  A    between atoms: _475  and  _478
REMARK  189  A    between atoms: _478  and  _479
REMARK  190  A    between atoms: _479  and  _480
REMARK  191  A    between atoms: _480  and  _481
REMARK  192  A    between atoms: _481  and  _482
REMARK  193  A    between atoms: _486  and  _488
REMARK  194  A    between atoms: _488  and  _489
REMARK  195  A    between atoms: _488  and  _491
REMARK  196  A    between atoms: _491  and  _492
REMARK  197  A    between atoms: _497  and  _499
REMARK  198  A    between atoms: _499  and  _500
REMARK  199  A    between atoms: _499  and  _502
REMARK  200  A    between atoms: _502  and  _503
REMARK  201  A    between atoms: _503  and  _504
REMARK  202  A    between atoms: _504  and  _505
REMARK  203  A    between atoms: _514  and  _516
REMARK  204  A    between atoms: _516  and  _517
REMARK  205  A    between atoms: _516  and  _519
REMARK  206  A    between atoms: _519  and  _520
REMARK  207  A    between atoms: _520  and  _521
REMARK  208  A    between atoms: _526  and  _528
REMARK  209  A    between atoms: _528  and  _529
REMARK  210  A    between atoms: _528  and  _531
REMARK  211  A    between atoms: _531  and  _532
REMARK  212  A    between atoms: _532  and  _533
REMARK  213  A    between atoms: _538  and  _540
REMARK  214  A    between atoms: _540  and  _541
REMARK  215  A    between atoms: _540  and  _543
REMARK  216  A    between atoms: _543  and  _544
REMARK  217  A    between atoms: _544  and  _545
REMARK  218  A    between atoms: _547  and  _549
REMARK  219  A    between atoms: _549  and  _550
REMARK  220  A    between atoms: _549  and  _552
REMARK  221  A    between atoms: _552  and  _553
REMARK  222  A    between atoms: _555  and  _557
REMARK  223  A    between atoms: _557  and  _558
REMARK  224  A    between atoms: _557  and  _560
REMARK  225  A    between atoms: _560  and  _561
REMARK  226  A    between atoms: _566  and  _567
REMARK  227  A    between atoms: _569  and  _571
REMARK  228  A    between atoms: _571  and  _572
REMARK  229  A    between atoms: _571  and  _574
REMARK  230  A    between atoms: _574  and  _575
REMARK  231  A    between atoms: _585  and  _587
REMARK  232  A    between atoms: _587  and  _588
REMARK  233  A    between atoms: _587  and  _590
REMARK  234  A    between atoms: _590  and  _591
REMARK  235  A    between atoms: _594  and  _596
REMARK  236  A    between atoms: _596  and  _597
REMARK  237  A    between atoms: _600  and  _602
REMARK  238  A    between atoms: _602  and  _603
REMARK  239  A    between atoms: _602  and  _605
REMARK  240  A    between atoms: _605  and  _606
REMARK                            x       y       z     vdW  Elec       q    Type
REMARK                         _______ _______ _______ _____ _____    ______ ____
ROOT
ATOM      1  O   HOH     1     -23.161   2.706 -11.836  0.00  0.00    +0.000 OA
ENDROOT
TORSDOF 0
REMARK  Name = ../refined-set-2016/4ua8/4ua8_pocket.pdb
REMARK  240 active torsions:
REMARK  status: ('A' for Active; 'I' for Inactive)
REMARK    1  A    between atoms: _1  and  _3
REMARK    2  A    between atoms: _3  and  _4
REMARK    3  A    between atoms: _7  and  _8
REMARK    4  A    between atoms: _13  and  _15
REMARK    5  A    between atoms: _15  and  _16
REMARK    6  A    between atoms: _19  and  _21
REMARK    7  A    between atoms: _21  and  _22
REMARK    8  A    between atoms: _21  and  _24
REMARK    9  A    between atoms: _24  and  _25
REMARK   10  A    between atoms: _25  and  _26
REMARK   11  A    between atoms: _29  and  _31
REMARK   12  A    between atoms: _31  and  _32
REMARK   13  A    between atoms: _31  and  _34
REMARK   14  A    between atoms: _34  and  _35
REMARK   15  A    between atoms: _38  and  _40
REMARK   16  A    between atoms: _40  and  _41
REMARK   17  A    between atoms: _40  and  _43
REMARK   18  A    between atoms: _43  and  _44
REMARK   19  A    between atoms: _46  and  _48
REMARK   20  A    between atoms: _48  and  _49
REMARK   21  A    between atoms: _48  and  _51
REMARK   22  A    between atoms: _51  and  _52
REMARK   23  A    between atoms: _54  and  _56
REMARK   24  A    between atoms: _56  and  _57
REMARK   25  A    between atoms: _56  and  _59
REMARK   26  A    between atoms: _59  and  _60
REMARK   27  A    between atoms: _60  and  _61
REMARK   28  A    between atoms: _64  and  _66
REMARK   29  A    between atoms: _66  and  _67
REMARK   30  A    between atoms: _66  and  _69
REMARK   31  A    between atoms: _69  and  _70
REMARK   32  A    between atoms: _72  and  _74
REMARK   33  A    between atoms: _74  and  _75
REMARK   34  A    between atoms: _74  and  _77
REMARK   35  A    between atoms: _77  and  _78
REMARK   36  A    between atoms: _81  and  _83
REMARK   37  A    between atoms: _83  and  _84
REMARK   38  A    between atoms: _87  and  _89
REMARK   39  A    between atoms: _89  and  _90
REMARK   40  A    between atoms: _89  and  _92
REMARK   41  A    between atoms: _92  and  _93
REMARK   42  A    between atoms: _93  and  _94
REMARK   43  A    between atoms: _94  and  _95
REMARK   44  A    between atoms: _95  and  _96
REMARK   45  A    between atoms: _100  and  _102
REMARK   46  A    between atoms: _102  and  _103
REMARK   47  A    between atoms: _102  and  _105
REMARK   48  A    between atoms: _105  and  _106
REMARK   49  A    between atoms: _109  and  _111
REMARK   50  A    between atoms: _111  and  _112
REMARK   51  A    between atoms: _111  and  _114
REMARK   52  A    between atoms: _114  and  _115
REMARK   53  A    between atoms: _115  and  _116
REMARK   54  A    between atoms: _118  and  _120
REMARK   55  A    between atoms: _120  and  _121
REMARK   56  A    between atoms: _120  and  _123
REMARK   57  A    between atoms: _123  and  _124
REMARK   58  A    between atoms: _130  and  _132
REMARK   59  A    between atoms: _132  and  _133
REMARK   60  A    between atoms: _136  and  _138
REMARK   61  A    between atoms: _138  and  _139
REMARK   62  A    between atoms: _138  and  _141
REMARK   63  A    between atoms: _141  and  _142
REMARK   64  A    between atoms: _147  and  _149
REMARK   65  A    between atoms: _149  and  _150
REMARK   66  A    between atoms: _149  and  _152
REMARK   67  A    between atoms: _152  and  _153
REMARK   68  A    between atoms: _156  and  _158
REMARK   69  A    between atoms: _158  and  _159
REMARK   70  A    between atoms: _158  and  _161
REMARK   71  A    between atoms: _161  and  _162
REMARK   72  A    between atoms: _162  and  _163
REMARK   73  A    between atoms: _168  and  _170
REMARK   74  A    between atoms: _170  and  _171
REMARK   75  A    between atoms: _170  and  _173
REMARK   76  A    between atoms: _173  and  _174
REMARK   77  A    between atoms: _178  and  _179
REMARK   78  A    between atoms: _184  and  _186
REMARK   79  A    between atoms: _186  and  _187
REMARK   80  A    between atoms: _186  and  _189
REMARK   81  A    between atoms: _189  and  _190
REMARK   82  A    between atoms: _195  and  _196
REMARK   83  A    between atoms: _198  and  _200
REMARK   84  A    between atoms: _200  and  _201
REMARK   85  A    between atoms: _200  and  _203
REMARK   86  A    between atoms: _203  and  _204
REMARK   87  A    between atoms: _207  and  _209
REMARK   88  A    between atoms: _209  and  _210
REMARK   89  A    between atoms: _209  and  _212
REMARK   90  A    between atoms: _212  and  _213
REMARK   91  A    between atoms: _215  and  _217
REMARK   92  A    between atoms: _217  and  _218
REMARK   93  A    between atoms: _217  and  _220
REMARK   94  A    between atoms: _220  and  _221
REMARK   95  A    between atoms: _226  and  _228
REMARK   96  A    between atoms: _228  and  _229
REMARK   97  A    between atoms: _228  and  _231
REMARK   98  A    between atoms: _231  and  _232
REMARK   99  A    between atoms: _235  and  _237
REMARK  100  A    between atoms: _237  and  _238
REMARK  101  A    between atoms: _237  and  _240
REMARK  102  A    between atoms: _240  and  _241
REMARK  103  A    between atoms: _252  and  _253
REMARK  104  A    between atoms: _258  and  _260
REMARK  105  A    between atoms: _260  and  _261
REMARK  106  A    between atoms: _260  and  _263
REMARK  107  A    between atoms: _263  and  _264
REMARK  108  A    between atoms: _267  and  _269
REMARK  109  A    between atoms: _269  and  _270
REMARK  110  A    between atoms: _269  and  _272
REMARK  111  A    between atoms: _272  and  _273
REMARK  112  A    between atoms: _278  and  _280
REMARK  113  A    between atoms: _280  and  _281
REMARK  114  A    between atoms: _283  and  _285
REMARK  115  A    between atoms: _285  and  _286
REMARK  116  A    between atoms: _285  and  _288
REMARK  117  A    between atoms: _288  and  _289
REMARK  118  A    between atoms: _299  and  _301
REMARK  119  A    between atoms: _301  and  _302
REMARK  120  A    between atoms: _301  and  _304
REMARK  121  A    between atoms: _304  and  _305
REMARK  122  A    between atoms: _310  and  _311
REMARK  123  A    between atoms: _313  and  _315
REMARK  124  A    between atoms: _315  and  _316
REMARK  125  A    between atoms: _315  and  _318
REMARK  126  A    between atoms: _318  and  _319
REMARK  127  A    between atoms: _322  and  _324
REMARK  128  A    between atoms: _324  and  _325
REMARK  129  A    between atoms: _324  and  _327
REMARK  130  A    between atoms: _327  and  _328
REMARK  131  A    between atoms: _333  and  _335
REMARK  132  A    between atoms: _335  and  _336
REMARK  133  A    between atoms: _335  and  _338
REMARK  134  A    between atoms: _338  and  _339
REMARK  135  A    between atoms: _344  and  _346
REMARK  136  A    between atoms: _346  and  _347
REMARK  137  A    between atoms: _346  and  _349
REMARK  138  A    between atoms: _349  and  _350
REMARK  139  A    between atoms: _350  and  _351
REMARK  140  A    between atoms: _354  and  _356
REMARK  141  A    between atoms: _356  and  _357
REMARK  142  A    between atoms: _359  and  _361
REMARK  143  A    between atoms: _361  and  _362
REMARK  144  A    between atoms: _361  and  _364
REMARK  145  A    between atoms: _364  and  _365
REMARK  146  A    between atoms: _367  and  _369
REMARK  147  A    between atoms: _369  and  _370
REMARK  148  A    between atoms: _369  and  _372
REMARK  149  A    between atoms: _372  and  _373
REMARK  150  A    between atoms: _378  and  _379
REMARK  151  A    between atoms: _381  and  _383
REMARK  152  A    between atoms: _383  and  _384
REMARK  153  A    between atoms: _383  and  _386
REMARK  154  A    between atoms: _386  and  _387
REMARK  155  A    between atoms: _392  and  _394
REMARK  156  A    between atoms: _394  and  _395
REMARK  157  A    between atoms: _397  and  _399
REMARK  158  A    between atoms: _399  and  _400
REMARK  159  A    between atoms: _399  and  _402
REMARK  160  A    between atoms: _402  and  _403
REMARK  161  A    between atoms: _408  and  _410
REMARK  162  A    between atoms: _410  and  _411
REMARK  163  A    between atoms: _410  and  _413
REMARK  164  A    between atoms: _413  and  _414
REMARK  165  A    between atoms: _424  and  _426
REMARK  166  A    between atoms: _426  and  _427
REMARK  167  A    between atoms: _426  and  _429
REMARK  168  A    between atoms: _429  and  _430
REMARK  169  A    between atoms: _435  and  _437
REMARK  170  A    between atoms: _437  and  _438
REMARK  171  A    between atoms: _437  and  _440
REMARK  172  A    between atoms: _440  and  _441
REMARK  173  A    between atoms: _441  and  _442
REMARK  174  A    between atoms: _442  and  _443
REMARK  175  A    between atoms: _443  and  _444
REMARK  176  A    between atoms: _448  and  _450
REMARK  177  A    between atoms: _450  and  _451
REMARK  178  A    between atoms: _450  and  _453
REMARK  179  A    between atoms: _453  and  _454
REMARK  180  A    between atoms: _460  and  _462
REMARK  181  A    between atoms: _462  and  _463
REMARK  182  A    between atoms: _465  and  _467
REMARK  183  A    between atoms: _467  and  _468
REMARK  184  A    between atoms: _467  and  _470
REMARK  185  A    between atoms: _470  and  _471
REMARK  186  A    between atoms: _473  and  _475
REMARK  187  A    between atoms: _475  and  _476
REMARK  188  A    between atoms: _475  and  _478
REMARK  189  A    between atoms: _478  and  _479
REMARK  190  A    between atoms: _479  and  _480
REMARK  191  A    between atoms: _480  and  _481
REMARK  192  A    between atoms: _481  and  _482
REMARK  193  A    between atoms: _486  and  _488
REMARK  194  A    between atoms: _488  and  _489
REMARK  195  A    between atoms: _488  and  _491
REMARK  196  A    between atoms: _491  and  _492
REMARK  197  A    between atoms: _497  and  _499
REMARK  198  A    between atoms: _499  and  _500
REMARK  199  A    between atoms: _499  and  _502
REMARK  200  A    between atoms: _502  and  _503
REMARK  201  A    between atoms: _503  and  _504
REMARK  202  A    between atoms: _504  and  _505
REMARK  203  A    between atoms: _514  and  _516
REMARK  204  A    between atoms: _516  and  _517
REMARK  205  A    between atoms: _516  and  _519
REMARK  206  A    between atoms: _519  and  _520
REMARK  207  A    between atoms: _520  and  _521
REMARK  208  A    between atoms: _526  and  _528
REMARK  209  A    between atoms: _528  and  _529
REMARK  210  A    between atoms: _528  and  _531
REMARK  211  A    between atoms: _531  and  _532
REMARK  212  A    between atoms: _532  and  _533
REMARK  213  A    between atoms: _538  and  _540
REMARK  214  A    between atoms: _540  and  _541
REMARK  215  A    between atoms: _540  and  _543
REMARK  216  A    between atoms: _543  and  _544
REMARK  217  A    between atoms: _544  and  _545
REMARK  218  A    between atoms: _547  and  _549
REMARK  219  A    between atoms: _549  and  _550
REMARK  220  A    between atoms: _549  and  _552
REMARK  221  A    between atoms: _552  and  _553
REMARK  222  A    between atoms: _555  and  _557
REMARK  223  A    between atoms: _557  and  _558
REMARK  224  A    between atoms: _557  and  _560
REMARK  225  A    between atoms: _560  and  _561
REMARK  226  A    between atoms: _566  and  _567
REMARK  227  A    between atoms: _569  and  _571
REMARK  228  A    between atoms: _571  and  _572
REMARK  229  A    between atoms: _571  and  _574
REMARK  230  A    between atoms: _574  and  _575
REMARK  231  A    between atoms: _585  and  _587
REMARK  232  A    between atoms: _587  and  _588
REMARK  233  A    between atoms: _587  and  _590
REMARK  234  A    between atoms: _590  and  _591
REMARK  235  A    between atoms: _594  and  _596
REMARK  236  A    between atoms: _596  and  _597
REMARK  237  A    between atoms: _600  and  _602
REMARK  238  A    between atoms: _602  and  _603
REMARK  239  A    between atoms: _602  and  _605
REMARK  240  A    between atoms: _605  and  _606
REMARK                            x       y       z     vdW  Elec       q    Type
REMARK                         _______ _______ _______ _____ _____    ______ ____
ROOT
ATOM      1  O   HOH     1     -37.014   8.310 -13.053  0.00  0.00    +0.000 OA
ENDROOT
TORSDOF 0
REMARK  Name = ../refined-set-2016/4ua8/4ua8_pocket.pdb
REMARK  240 active torsions:
REMARK  status: ('A' for Active; 'I' for Inactive)
REMARK    1  A    between atoms: _1  and  _3
REMARK    2  A    between atoms: _3  and  _4
REMARK    3  A    between atoms: _7  and  _8
REMARK    4  A    between atoms: _13  and  _15
REMARK    5  A    between atoms: _15  and  _16
REMARK    6  A    between atoms: _19  and  _21
REMARK    7  A    between atoms: _21  and  _22
REMARK    8  A    between atoms: _21  and  _24
REMARK    9  A    between atoms: _24  and  _25
REMARK   10  A    between atoms: _25  and  _26
REMARK   11  A    between atoms: _29  and  _31
REMARK   12  A    between atoms: _31  and  _32
REMARK   13  A    between atoms: _31  and  _34
REMARK   14  A    between atoms: _34  and  _35
REMARK   15  A    between atoms: _38  and  _40
REMARK   16  A    between atoms: _40  and  _41
REMARK   17  A    between atoms: _40  and  _43
REMARK   18  A    between atoms: _43  and  _44
REMARK   19  A    between atoms: _46  and  _48
REMARK   20  A    between atoms: _48  and  _49
REMARK   21  A    between atoms: _48  and  _51
REMARK   22  A    between atoms: _51  and  _52
REMARK   23  A    between atoms: _54  and  _56
REMARK   24  A    between atoms: _56  and  _57
REMARK   25  A    between atoms: _56  and  _59
REMARK   26  A    between atoms: _59  and  _60
REMARK   27  A    between atoms: _60  and  _61
REMARK   28  A    between atoms: _64  and  _66
REMARK   29  A    between atoms: _66  and  _67
REMARK   30  A    between atoms: _66  and  _69
REMARK   31  A    between atoms: _69  and  _70
REMARK   32  A    between atoms: _72  and  _74
REMARK   33  A    between atoms: _74  and  _75
REMARK   34  A    between atoms: _74  and  _77
REMARK   35  A    between atoms: _77  and  _78
REMARK   36  A    between atoms: _81  and  _83
REMARK   37  A    between atoms: _83  and  _84
REMARK   38  A    between atoms: _87  and  _89
REMARK   39  A    between atoms: _89  and  _90
REMARK   40  A    between atoms: _89  and  _92
REMARK   41  A    between atoms: _92  and  _93
REMARK   42  A    between atoms: _93  and  _94
REMARK   43  A    between atoms: _94  and  _95
REMARK   44  A    between atoms: _95  and  _96
REMARK   45  A    between atoms: _100  and  _102
REMARK   46  A    between atoms: _102  and  _103
REMARK   47  A    between atoms: _102  and  _105
REMARK   48  A    between atoms: _105  and  _106
REMARK   49  A    between atoms: _109  and  _111
REMARK   50  A    between atoms: _111  and  _112
REMARK   51  A    between atoms: _111  and  _114
REMARK   52  A    between atoms: _114  and  _115
REMARK   53  A    between atoms: _115  and  _116
REMARK   54  A    between atoms: _118  and  _120
REMARK   55  A    between atoms: _120  and  _121
REMARK   56  A    between atoms: _120  and  _123
REMARK   57  A    between atoms: _123  and  _124
REMARK   58  A    between atoms: _130  and  _132
REMARK   59  A    between atoms: _132  and  _133
REMARK   60  A    between atoms: _136  and  _138
REMARK   61  A    between atoms: _138  and  _139
REMARK   62  A    between atoms: _138  and  _141
REMARK   63  A    between atoms: _141  and  _142
REMARK   64  A    between atoms: _147  and  _149
REMARK   65  A    between atoms: _149  and  _150
REMARK   66  A    between atoms: _149  and  _152
REMARK   67  A    between atoms: _152  and  _153
REMARK   68  A    between atoms: _156  and  _158
REMARK   69  A    between atoms: _158  and  _159
REMARK   70  A    between atoms: _158  and  _161
REMARK   71  A    between atoms: _161  and  _162
REMARK   72  A    between atoms: _162  and  _163
REMARK   73  A    between atoms: _168  and  _170
REMARK   74  A    between atoms: _170  and  _171
REMARK   75  A    between atoms: _170  and  _173
REMARK   76  A    between atoms: _173  and  _174
REMARK   77  A    between atoms: _178  and  _179
REMARK   78  A    between atoms: _184  and  _186
REMARK   79  A    between atoms: _186  and  _187
REMARK   80  A    between atoms: _186  and  _189
REMARK   81  A    between atoms: _189  and  _190
REMARK   82  A    between atoms: _195  and  _196
REMARK   83  A    between atoms: _198  and  _200
REMARK   84  A    between atoms: _200  and  _201
REMARK   85  A    between atoms: _200  and  _203
REMARK   86  A    between atoms: _203  and  _204
REMARK   87  A    between atoms: _207  and  _209
REMARK   88  A    between atoms: _209  and  _210
REMARK   89  A    between atoms: _209  and  _212
REMARK   90  A    between atoms: _212  and  _213
REMARK   91  A    between atoms: _215  and  _217
REMARK   92  A    between atoms: _217  and  _218
REMARK   93  A    between atoms: _217  and  _220
REMARK   94  A    between atoms: _220  and  _221
REMARK   95  A    between atoms: _226  and  _228
REMARK   96  A    between atoms: _228  and  _229
REMARK   97  A    between atoms: _228  and  _231
REMARK   98  A    between atoms: _231  and  _232
REMARK   99  A    between atoms: _235  and  _237
REMARK  100  A    between atoms: _237  and  _238
REMARK  101  A    between atoms: _237  and  _240
REMARK  102  A    between atoms: _240  and  _241
REMARK  103  A    between atoms: _252  and  _253
REMARK  104  A    between atoms: _258  and  _260
REMARK  105  A    between atoms: _260  and  _261
REMARK  106  A    between atoms: _260  and  _263
REMARK  107  A    between atoms: _263  and  _264
REMARK  108  A    between atoms: _267  and  _269
REMARK  109  A    between atoms: _269  and  _270
REMARK  110  A    between atoms: _269  and  _272
REMARK  111  A    between atoms: _272  and  _273
REMARK  112  A    between atoms: _278  and  _280
REMARK  113  A    between atoms: _280  and  _281
REMARK  114  A    between atoms: _283  and  _285
REMARK  115  A    between atoms: _285  and  _286
REMARK  116  A    between atoms: _285  and  _288
REMARK  117  A    between atoms: _288  and  _289
REMARK  118  A    between atoms: _299  and  _301
REMARK  119  A    between atoms: _301  and  _302
REMARK  120  A    between atoms: _301  and  _304
REMARK  121  A    between atoms: _304  and  _305
REMARK  122  A    between atoms: _310  and  _311
REMARK  123  A    between atoms: _313  and  _315
REMARK  124  A    between atoms: _315  and  _316
REMARK  125  A    between atoms: _315  and  _318
REMARK  126  A    between atoms: _318  and  _319
REMARK  127  A    between atoms: _322  and  _324
REMARK  128  A    between atoms: _324  and  _325
REMARK  129  A    between atoms: _324  and  _327
REMARK  130  A    between atoms: _327  and  _328
REMARK  131  A    between atoms: _333  and  _335
REMARK  132  A    between atoms: _335  and  _336
REMARK  133  A    between atoms: _335  and  _338
REMARK  134  A    between atoms: _338  and  _339
REMARK  135  A    between atoms: _344  and  _346
REMARK  136  A    between atoms: _346  and  _347
REMARK  137  A    between atoms: _346  and  _349
REMARK  138  A    between atoms: _349  and  _350
REMARK  139  A    between atoms: _350  and  _351
REMARK  140  A    between atoms: _354  and  _356
REMARK  141  A    between atoms: _356  and  _357
REMARK  142  A    between atoms: _359  and  _361
REMARK  143  A    between atoms: _361  and  _362
REMARK  144  A    between atoms: _361  and  _364
REMARK  145  A    between atoms: _364  and  _365
REMARK  146  A    between atoms: _367  and  _369
REMARK  147  A    between atoms: _369  and  _370
REMARK  148  A    between atoms: _369  and  _372
REMARK  149  A    between atoms: _372  and  _373
REMARK  150  A    between atoms: _378  and  _379
REMARK  151  A    between atoms: _381  and  _383
REMARK  152  A    between atoms: _383  and  _384
REMARK  153  A    between atoms: _383  and  _386
REMARK  154  A    between atoms: _386  and  _387
REMARK  155  A    between atoms: _392  and  _394
REMARK  156  A    between atoms: _394  and  _395
REMARK  157  A    between atoms: _397  and  _399
REMARK  158  A    between atoms: _399  and  _400
REMARK  159  A    between atoms: _399  and  _402
REMARK  160  A    between atoms: _402  and  _403
REMARK  161  A    between atoms: _408  and  _410
REMARK  162  A    between atoms: _410  and  _411
REMARK  163  A    between atoms: _410  and  _413
REMARK  164  A    between atoms: _413  and  _414
REMARK  165  A    between atoms: _424  and  _426
REMARK  166  A    between atoms: _426  and  _427
REMARK  167  A    between atoms: _426  and  _429
REMARK  168  A    between atoms: _429  and  _430
REMARK  169  A    between atoms: _435  and  _437
REMARK  170  A    between atoms: _437  and  _438
REMARK  171  A    between atoms: _437  and  _440
REMARK  172  A    between atoms: _440  and  _441
REMARK  173  A    between atoms: _441  and  _442
REMARK  174  A    between atoms: _442  and  _443
REMARK  175  A    between atoms: _443  and  _444
REMARK  176  A    between atoms: _448  and  _450
REMARK  177  A    between atoms: _450  and  _451
REMARK  178  A    between atoms: _450  and  _453
REMARK  179  A    between atoms: _453  and  _454
REMARK  180  A    between atoms: _460  and  _462
REMARK  181  A    between atoms: _462  and  _463
REMARK  182  A    between atoms: _465  and  _467
REMARK  183  A    between atoms: _467  and  _468
REMARK  184  A    between atoms: _467  and  _470
REMARK  185  A    between atoms: _470  and  _471
REMARK  186  A    between atoms: _473  and  _475
REMARK  187  A    between atoms: _475  and  _476
REMARK  188  A    between atoms: _475  and  _478
REMARK  189  A    between atoms: _478  and  _479
REMARK  190  A    between atoms: _479  and  _480
REMARK  191  A    between atoms: _480  and  _481
REMARK  192  A    between atoms: _481  and  _482
REMARK  193  A    between atoms: _486  and  _488
REMARK  194  A    between atoms: _488  and  _489
REMARK  195  A    between atoms: _488  and  _491
REMARK  196  A    between atoms: _491  and  _492
REMARK  197  A    between atoms: _497  and  _499
REMARK  198  A    between atoms: _499  and  _500
REMARK  199  A    between atoms: _499  and  _502
REMARK  200  A    between atoms: _502  and  _503
REMARK  201  A    between atoms: _503  and  _504
REMARK  202  A    between atoms: _504  and  _505
REMARK  203  A    between atoms: _514  and  _516
REMARK  204  A    between atoms: _516  and  _517
REMARK  205  A    between atoms: _516  and  _519
REMARK  206  A    between atoms: _519  and  _520
REMARK  207  A    between atoms: _520  and  _521
REMARK  208  A    between atoms: _526  and  _528
REMARK  209  A    between atoms: _528  and  _529
REMARK  210  A    between atoms: _528  and  _531
REMARK  211  A    between atoms: _531  and  _532
REMARK  212  A    between atoms: _532  and  _533
REMARK  213  A    between atoms: _538  and  _540
REMARK  214  A    between atoms: _540  and  _541
REMARK  215  A    between atoms: _540  and  _543
REMARK  216  A    between atoms: _543  and  _544
REMARK  217  A    between atoms: _544  and  _545
REMARK  218  A    between atoms: _547  and  _549
REMARK  219  A    between atoms: _549  and  _550
REMARK  220  A    between atoms: _549  and  _552
REMARK  221  A    between atoms: _552  and  _553
REMARK  222  A    between atoms: _555  and  _557
REMARK  223  A    between atoms: _557  and  _558
REMARK  224  A    between atoms: _557  and  _560
REMARK  225  A    between atoms: _560  and  _561
REMARK  226  A    between atoms: _566  and  _567
REMARK  227  A    between atoms: _569  and  _571
REMARK  228  A    between atoms: _571  and  _572
REMARK  229  A    between atoms: _571  and  _574
REMARK  230  A    between atoms: _574  and  _575
REMARK  231  A    between atoms: _585  and  _587
REMARK  232  A    between atoms: _587  and  _588
REMARK  233  A    between atoms: _587  and  _590
REMARK  234  A    between atoms: _590  and  _591
REMARK  235  A    between atoms: _594  and  _596
REMARK  236  A    between atoms: _596  and  _597
REMARK  237  A    between atoms: _600  and  _602
REMARK  238  A    between atoms: _602  and  _603
REMARK  239  A    between atoms: _602  and  _605
REMARK  240  A    between atoms: _605  and  _606
REMARK                            x       y       z     vdW  Elec       q    Type
REMARK                         _______ _______ _______ _____ _____    ______ ____
ROOT
ATOM      1  O   HOH     1     -28.003   7.275 -11.554  0.00  0.00    +0.000 OA
ENDROOT
TORSDOF 0
REMARK  Name = ../refined-set-2016/4ua8/4ua8_pocket.pdb
REMARK  240 active torsions:
REMARK  status: ('A' for Active; 'I' for Inactive)
REMARK    1  A    between atoms: _1  and  _3
REMARK    2  A    between atoms: _3  and  _4
REMARK    3  A    between atoms: _7  and  _8
REMARK    4  A    between atoms: _13  and  _15
REMARK    5  A    between atoms: _15  and  _16
REMARK    6  A    between atoms: _19  and  _21
REMARK    7  A    between atoms: _21  and  _22
REMARK    8  A    between atoms: _21  and  _24
REMARK    9  A    between atoms: _24  and  _25
REMARK   10  A    between atoms: _25  and  _26
REMARK   11  A    between atoms: _29  and  _31
REMARK   12  A    between atoms: _31  and  _32
REMARK   13  A    between atoms: _31  and  _34
REMARK   14  A    between atoms: _34  and  _35
REMARK   15  A    between atoms: _38  and  _40
REMARK   16  A    between atoms: _40  and  _41
REMARK   17  A    between atoms: _40  and  _43
REMARK   18  A    between atoms: _43  and  _44
REMARK   19  A    between atoms: _46  and  _48
REMARK   20  A    between atoms: _48  and  _49
REMARK   21  A    between atoms: _48  and  _51
REMARK   22  A    between atoms: _51  and  _52
REMARK   23  A    between atoms: _54  and  _56
REMARK   24  A    between atoms: _56  and  _57
REMARK   25  A    between atoms: _56  and  _59
REMARK   26  A    between atoms: _59  and  _60
REMARK   27  A    between atoms: _60  and  _61
REMARK   28  A    between atoms: _64  and  _66
REMARK   29  A    between atoms: _66  and  _67
REMARK   30  A    between atoms: _66  and  _69
REMARK   31  A    between atoms: _69  and  _70
REMARK   32  A    between atoms: _72  and  _74
REMARK   33  A    between atoms: _74  and  _75
REMARK   34  A    between atoms: _74  and  _77
REMARK   35  A    between atoms: _77  and  _78
REMARK   36  A    between atoms: _81  and  _83
REMARK   37  A    between atoms: _83  and  _84
REMARK   38  A    between atoms: _87  and  _89
REMARK   39  A    between atoms: _89  and  _90
REMARK   40  A    between atoms: _89  and  _92
REMARK   41  A    between atoms: _92  and  _93
REMARK   42  A    between atoms: _93  and  _94
REMARK   43  A    between atoms: _94  and  _95
REMARK   44  A    between atoms: _95  and  _96
REMARK   45  A    between atoms: _100  and  _102
REMARK   46  A    between atoms: _102  and  _103
REMARK   47  A    between atoms: _102  and  _105
REMARK   48  A    between atoms: _105  and  _106
REMARK   49  A    between atoms: _109  and  _111
REMARK   50  A    between atoms: _111  and  _112
REMARK   51  A    between atoms: _111  and  _114
REMARK   52  A    between atoms: _114  and  _115
REMARK   53  A    between atoms: _115  and  _116
REMARK   54  A    between atoms: _118  and  _120
REMARK   55  A    between atoms: _120  and  _121
REMARK   56  A    between atoms: _120  and  _123
REMARK   57  A    between atoms: _123  and  _124
REMARK   58  A    between atoms: _130  and  _132
REMARK   59  A    between atoms: _132  and  _133
REMARK   60  A    between atoms: _136  and  _138
REMARK   61  A    between atoms: _138  and  _139
REMARK   62  A    between atoms: _138  and  _141
REMARK   63  A    between atoms: _141  and  _142
REMARK   64  A    between atoms: _147  and  _149
REMARK   65  A    between atoms: _149  and  _150
REMARK   66  A    between atoms: _149  and  _152
REMARK   67  A    between atoms: _152  and  _153
REMARK   68  A    between atoms: _156  and  _158
REMARK   69  A    between atoms: _158  and  _159
REMARK   70  A    between atoms: _158  and  _161
REMARK   71  A    between atoms: _161  and  _162
REMARK   72  A    between atoms: _162  and  _163
REMARK   73  A    between atoms: _168  and  _170
REMARK   74  A    between atoms: _170  and  _171
REMARK   75  A    between atoms: _170  and  _173
REMARK   76  A    between atoms: _173  and  _174
REMARK   77  A    between atoms: _178  and  _179
REMARK   78  A    between atoms: _184  and  _186
REMARK   79  A    between atoms: _186  and  _187
REMARK   80  A    between atoms: _186  and  _189
REMARK   81  A    between atoms: _189  and  _190
REMARK   82  A    between atoms: _195  and  _196
REMARK   83  A    between atoms: _198  and  _200
REMARK   84  A    between atoms: _200  and  _201
REMARK   85  A    between atoms: _200  and  _203
REMARK   86  A    between atoms: _203  and  _204
REMARK   87  A    between atoms: _207  and  _209
REMARK   88  A    between atoms: _209  and  _210
REMARK   89  A    between atoms: _209  and  _212
REMARK   90  A    between atoms: _212  and  _213
REMARK   91  A    between atoms: _215  and  _217
REMARK   92  A    between atoms: _217  and  _218
REMARK   93  A    between atoms: _217  and  _220
REMARK   94  A    between atoms: _220  and  _221
REMARK   95  A    between atoms: _226  and  _228
REMARK   96  A    between atoms: _228  and  _229
REMARK   97  A    between atoms: _228  and  _231
REMARK   98  A    between atoms: _231  and  _232
REMARK   99  A    between atoms: _235  and  _237
REMARK  100  A    between atoms: _237  and  _238
REMARK  101  A    between atoms: _237  and  _240
REMARK  102  A    between atoms: _240  and  _241
REMARK  103  A    between atoms: _252  and  _253
REMARK  104  A    between atoms: _258  and  _260
REMARK  105  A    between atoms: _260  and  _261
REMARK  106  A    between atoms: _260  and  _263
REMARK  107  A    between atoms: _263  and  _264
REMARK  108  A    between atoms: _267  and  _269
REMARK  109  A    between atoms: _269  and  _270
REMARK  110  A    between atoms: _269  and  _272
REMARK  111  A    between atoms: _272  and  _273
REMARK  112  A    between atoms: _278  and  _280
REMARK  113  A    between atoms: _280  and  _281
REMARK  114  A    between atoms: _283  and  _285
REMARK  115  A    between atoms: _285  and  _286
REMARK  116  A    between atoms: _285  and  _288
REMARK  117  A    between atoms: _288  and  _289
REMARK  118  A    between atoms: _299  and  _301
REMARK  119  A    between atoms: _301  and  _302
REMARK  120  A    between atoms: _301  and  _304
REMARK  121  A    between atoms: _304  and  _305
REMARK  122  A    between atoms: _310  and  _311
REMARK  123  A    between atoms: _313  and  _315
REMARK  124  A    between atoms: _315  and  _316
REMARK  125  A    between atoms: _315  and  _318
REMARK  126  A    between atoms: _318  and  _319
REMARK  127  A    between atoms: _322  and  _324
REMARK  128  A    between atoms: _324  and  _325
REMARK  129  A    between atoms: _324  and  _327
REMARK  130  A    between atoms: _327  and  _328
REMARK  131  A    between atoms: _333  and  _335
REMARK  132  A    between atoms: _335  and  _336
REMARK  133  A    between atoms: _335  and  _338
REMARK  134  A    between atoms: _338  and  _339
REMARK  135  A    between atoms: _344  and  _346
REMARK  136  A    between atoms: _346  and  _347
REMARK  137  A    between atoms: _346  and  _349
REMARK  138  A    between atoms: _349  and  _350
REMARK  139  A    between atoms: _350  and  _351
REMARK  140  A    between atoms: _354  and  _356
REMARK  141  A    between atoms: _356  and  _357
REMARK  142  A    between atoms: _359  and  _361
REMARK  143  A    between atoms: _361  and  _362
REMARK  144  A    between atoms: _361  and  _364
REMARK  145  A    between atoms: _364  and  _365
REMARK  146  A    between atoms: _367  and  _369
REMARK  147  A    between atoms: _369  and  _370
REMARK  148  A    between atoms: _369  and  _372
REMARK  149  A    between atoms: _372  and  _373
REMARK  150  A    between atoms: _378  and  _379
REMARK  151  A    between atoms: _381  and  _383
REMARK  152  A    between atoms: _383  and  _384
REMARK  153  A    between atoms: _383  and  _386
REMARK  154  A    between atoms: _386  and  _387
REMARK  155  A    between atoms: _392  and  _394
REMARK  156  A    between atoms: _394  and  _395
REMARK  157  A    between atoms: _397  and  _399
REMARK  158  A    between atoms: _399  and  _400
REMARK  159  A    between atoms: _399  and  _402
REMARK  160  A    between atoms: _402  and  _403
REMARK  161  A    between atoms: _408  and  _410
REMARK  162  A    between atoms: _410  and  _411
REMARK  163  A    between atoms: _410  and  _413
REMARK  164  A    between atoms: _413  and  _414
REMARK  165  A    between atoms: _424  and  _426
REMARK  166  A    between atoms: _426  and  _427
REMARK  167  A    between atoms: _426  and  _429
REMARK  168  A    between atoms: _429  and  _430
REMARK  169  A    between atoms: _435  and  _437
REMARK  170  A    between atoms: _437  and  _438
REMARK  171  A    between atoms: _437  and  _440
REMARK  172  A    between atoms: _440  and  _441
REMARK  173  A    between atoms: _441  and  _442
REMARK  174  A    between atoms: _442  and  _443
REMARK  175  A    between atoms: _443  and  _444
REMARK  176  A    between atoms: _448  and  _450
REMARK  177  A    between atoms: _450  and  _451
REMARK  178  A    between atoms: _450  and  _453
REMARK  179  A    between atoms: _453  and  _454
REMARK  180  A    between atoms: _460  and  _462
REMARK  181  A    between atoms: _462  and  _463
REMARK  182  A    between atoms: _465  and  _467
REMARK  183  A    between atoms: _467  and  _468
REMARK  184  A    between atoms: _467  and  _470
REMARK  185  A    between atoms: _470  and  _471
REMARK  186  A    between atoms: _473  and  _475
REMARK  187  A    between atoms: _475  and  _476
REMARK  188  A    between atoms: _475  and  _478
REMARK  189  A    between atoms: _478  and  _479
REMARK  190  A    between atoms: _479  and  _480
REMARK  191  A    between atoms: _480  and  _481
REMARK  192  A    between atoms: _481  and  _482
REMARK  193  A    between atoms: _486  and  _488
REMARK  194  A    between atoms: _488  and  _489
REMARK  195  A    between atoms: _488  and  _491
REMARK  196  A    between atoms: _491  and  _492
REMARK  197  A    between atoms: _497  and  _499
REMARK  198  A    between atoms: _499  and  _500
REMARK  199  A    between atoms: _499  and  _502
REMARK  200  A    between atoms: _502  and  _503
REMARK  201  A    between atoms: _503  and  _504
REMARK  202  A    between atoms: _504  and  _505
REMARK  203  A    between atoms: _514  and  _516
REMARK  204  A    between atoms: _516  and  _517
REMARK  205  A    between atoms: _516  and  _519
REMARK  206  A    between atoms: _519  and  _520
REMARK  207  A    between atoms: _520  and  _521
REMARK  208  A    between atoms: _526  and  _528
REMARK  209  A    between atoms: _528  and  _529
REMARK  210  A    between atoms: _528  and  _531
REMARK  211  A    between atoms: _531  and  _532
REMARK  212  A    between atoms: _532  and  _533
REMARK  213  A    between atoms: _538  and  _540
REMARK  214  A    between atoms: _540  and  _541
REMARK  215  A    between atoms: _540  and  _543
REMARK  216  A    between atoms: _543  and  _544
REMARK  217  A    between atoms: _544  and  _545
REMARK  218  A    between atoms: _547  and  _549
REMARK  219  A    between atoms: _549  and  _550
REMARK  220  A    between atoms: _549  and  _552
REMARK  221  A    between atoms: _552  and  _553
REMARK  222  A    between atoms: _555  and  _557
REMARK  223  A    between atoms: _557  and  _558
REMARK  224  A    between atoms: _557  and  _560
REMARK  225  A    between atoms: _560  and  _561
REMARK  226  A    between atoms: _566  and  _567
REMARK  227  A    between atoms: _569  and  _571
REMARK  228  A    between atoms: _571  and  _572
REMARK  229  A    between atoms: _571  and  _574
REMARK  230  A    between atoms: _574  and  _575
REMARK  231  A    between atoms: _585  and  _587
REMARK  232  A    between atoms: _587  and  _588
REMARK  233  A    between atoms: _587  and  _590
REMARK  234  A    between atoms: _590  and  _591
REMARK  235  A    between atoms: _594  and  _596
REMARK  236  A    between atoms: _596  and  _597
REMARK  237  A    between atoms: _600  and  _602
REMARK  238  A    between atoms: _602  and  _603
REMARK  239  A    between atoms: _602  and  _605
REMARK  240  A    between atoms: _605  and  _606
REMARK                            x       y       z     vdW  Elec       q    Type
REMARK                         _______ _______ _______ _____ _____    ______ ____
ROOT
ATOM      1  O   HOH     1     -31.032  -0.757  -9.275  0.00  0.00    +0.000 OA
ENDROOT
TORSDOF 0
REMARK  Name = ../refined-set-2016/4ua8/4ua8_pocket.pdb
REMARK  240 active torsions:
REMARK  status: ('A' for Active; 'I' for Inactive)
REMARK    1  A    between atoms: _1  and  _3
REMARK    2  A    between atoms: _3  and  _4
REMARK    3  A    between atoms: _7  and  _8
REMARK    4  A    between atoms: _13  and  _15
REMARK    5  A    between atoms: _15  and  _16
REMARK    6  A    between atoms: _19  and  _21
REMARK    7  A    between atoms: _21  and  _22
REMARK    8  A    between atoms: _21  and  _24
REMARK    9  A    between atoms: _24  and  _25
REMARK   10  A    between atoms: _25  and  _26
REMARK   11  A    between atoms: _29  and  _31
REMARK   12  A    between atoms: _31  and  _32
REMARK   13  A    between atoms: _31  and  _34
REMARK   14  A    between atoms: _34  and  _35
REMARK   15  A    between atoms: _38  and  _40
REMARK   16  A    between atoms: _40  and  _41
REMARK   17  A    between atoms: _40  and  _43
REMARK   18  A    between atoms: _43  and  _44
REMARK   19  A    between atoms: _46  and  _48
REMARK   20  A    between atoms: _48  and  _49
REMARK   21  A    between atoms: _48  and  _51
REMARK   22  A    between atoms: _51  and  _52
REMARK   23  A    between atoms: _54  and  _56
REMARK   24  A    between atoms: _56  and  _57
REMARK   25  A    between atoms: _56  and  _59
REMARK   26  A    between atoms: _59  and  _60
REMARK   27  A    between atoms: _60  and  _61
REMARK   28  A    between atoms: _64  and  _66
REMARK   29  A    between atoms: _66  and  _67
REMARK   30  A    between atoms: _66  and  _69
REMARK   31  A    between atoms: _69  and  _70
REMARK   32  A    between atoms: _72  and  _74
REMARK   33  A    between atoms: _74  and  _75
REMARK   34  A    between atoms: _74  and  _77
REMARK   35  A    between atoms: _77  and  _78
REMARK   36  A    between atoms: _81  and  _83
REMARK   37  A    between atoms: _83  and  _84
REMARK   38  A    between atoms: _87  and  _89
REMARK   39  A    between atoms: _89  and  _90
REMARK   40  A    between atoms: _89  and  _92
REMARK   41  A    between atoms: _92  and  _93
REMARK   42  A    between atoms: _93  and  _94
REMARK   43  A    between atoms: _94  and  _95
REMARK   44  A    between atoms: _95  and  _96
REMARK   45  A    between atoms: _100  and  _102
REMARK   46  A    between atoms: _102  and  _103
REMARK   47  A    between atoms: _102  and  _105
REMARK   48  A    between atoms: _105  and  _106
REMARK   49  A    between atoms: _109  and  _111
REMARK   50  A    between atoms: _111  and  _112
REMARK   51  A    between atoms: _111  and  _114
REMARK   52  A    between atoms: _114  and  _115
REMARK   53  A    between atoms: _115  and  _116
REMARK   54  A    between atoms: _118  and  _120
REMARK   55  A    between atoms: _120  and  _121
REMARK   56  A    between atoms: _120  and  _123
REMARK   57  A    between atoms: _123  and  _124
REMARK   58  A    between atoms: _130  and  _132
REMARK   59  A    between atoms: _132  and  _133
REMARK   60  A    between atoms: _136  and  _138
REMARK   61  A    between atoms: _138  and  _139
REMARK   62  A    between atoms: _138  and  _141
REMARK   63  A    between atoms: _141  and  _142
REMARK   64  A    between atoms: _147  and  _149
REMARK   65  A    between atoms: _149  and  _150
REMARK   66  A    between atoms: _149  and  _152
REMARK   67  A    between atoms: _152  and  _153
REMARK   68  A    between atoms: _156  and  _158
REMARK   69  A    between atoms: _158  and  _159
REMARK   70  A    between atoms: _158  and  _161
REMARK   71  A    between atoms: _161  and  _162
REMARK   72  A    between atoms: _162  and  _163
REMARK   73  A    between atoms: _168  and  _170
REMARK   74  A    between atoms: _170  and  _171
REMARK   75  A    between atoms: _170  and  _173
REMARK   76  A    between atoms: _173  and  _174
REMARK   77  A    between atoms: _178  and  _179
REMARK   78  A    between atoms: _184  and  _186
REMARK   79  A    between atoms: _186  and  _187
REMARK   80  A    between atoms: _186  and  _189
REMARK   81  A    between atoms: _189  and  _190
REMARK   82  A    between atoms: _195  and  _196
REMARK   83  A    between atoms: _198  and  _200
REMARK   84  A    between atoms: _200  and  _201
REMARK   85  A    between atoms: _200  and  _203
REMARK   86  A    between atoms: _203  and  _204
REMARK   87  A    between atoms: _207  and  _209
REMARK   88  A    between atoms: _209  and  _210
REMARK   89  A    between atoms: _209  and  _212
REMARK   90  A    between atoms: _212  and  _213
REMARK   91  A    between atoms: _215  and  _217
REMARK   92  A    between atoms: _217  and  _218
REMARK   93  A    between atoms: _217  and  _220
REMARK   94  A    between atoms: _220  and  _221
REMARK   95  A    between atoms: _226  and  _228
REMARK   96  A    between atoms: _228  and  _229
REMARK   97  A    between atoms: _228  and  _231
REMARK   98  A    between atoms: _231  and  _232
REMARK   99  A    between atoms: _235  and  _237
REMARK  100  A    between atoms: _237  and  _238
REMARK  101  A    between atoms: _237  and  _240
REMARK  102  A    between atoms: _240  and  _241
REMARK  103  A    between atoms: _252  and  _253
REMARK  104  A    between atoms: _258  and  _260
REMARK  105  A    between atoms: _260  and  _261
REMARK  106  A    between atoms: _260  and  _263
REMARK  107  A    between atoms: _263  and  _264
REMARK  108  A    between atoms: _267  and  _269
REMARK  109  A    between atoms: _269  and  _270
REMARK  110  A    between atoms: _269  and  _272
REMARK  111  A    between atoms: _272  and  _273
REMARK  112  A    between atoms: _278  and  _280
REMARK  113  A    between atoms: _280  and  _281
REMARK  114  A    between atoms: _283  and  _285
REMARK  115  A    between atoms: _285  and  _286
REMARK  116  A    between atoms: _285  and  _288
REMARK  117  A    between atoms: _288  and  _289
REMARK  118  A    between atoms: _299  and  _301
REMARK  119  A    between atoms: _301  and  _302
REMARK  120  A    between atoms: _301  and  _304
REMARK  121  A    between atoms: _304  and  _305
REMARK  122  A    between atoms: _310  and  _311
REMARK  123  A    between atoms: _313  and  _315
REMARK  124  A    between atoms: _315  and  _316
REMARK  125  A    between atoms: _315  and  _318
REMARK  126  A    between atoms: _318  and  _319
REMARK  127  A    between atoms: _322  and  _324
REMARK  128  A    between atoms: _324  and  _325
REMARK  129  A    between atoms: _324  and  _327
REMARK  130  A    between atoms: _327  and  _328
REMARK  131  A    between atoms: _333  and  _335
REMARK  132  A    between atoms: _335  and  _336
REMARK  133  A    between atoms: _335  and  _338
REMARK  134  A    between atoms: _338  and  _339
REMARK  135  A    between atoms: _344  and  _346
REMARK  136  A    between atoms: _346  and  _347
REMARK  137  A    between atoms: _346  and  _349
REMARK  138  A    between atoms: _349  and  _350
REMARK  139  A    between atoms: _350  and  _351
REMARK  140  A    between atoms: _354  and  _356
REMARK  141  A    between atoms: _356  and  _357
REMARK  142  A    between atoms: _359  and  _361
REMARK  143  A    between atoms: _361  and  _362
REMARK  144  A    between atoms: _361  and  _364
REMARK  145  A    between atoms: _364  and  _365
REMARK  146  A    between atoms: _367  and  _369
REMARK  147  A    between atoms: _369  and  _370
REMARK  148  A    between atoms: _369  and  _372
REMARK  149  A    between atoms: _372  and  _373
REMARK  150  A    between atoms: _378  and  _379
REMARK  151  A    between atoms: _381  and  _383
REMARK  152  A    between atoms: _383  and  _384
REMARK  153  A    between atoms: _383  and  _386
REMARK  154  A    between atoms: _386  and  _387
REMARK  155  A    between atoms: _392  and  _394
REMARK  156  A    between atoms: _394  and  _395
REMARK  157  A    between atoms: _397  and  _399
REMARK  158  A    between atoms: _399  and  _400
REMARK  159  A    between atoms: _399  and  _402
REMARK  160  A    between atoms: _402  and  _403
REMARK  161  A    between atoms: _408  and  _410
REMARK  162  A    between atoms: _410  and  _411
REMARK  163  A    between atoms: _410  and  _413
REMARK  164  A    between atoms: _413  and  _414
REMARK  165  A    between atoms: _424  and  _426
REMARK  166  A    between atoms: _426  and  _427
REMARK  167  A    between atoms: _426  and  _429
REMARK  168  A    between atoms: _429  and  _430
REMARK  169  A    between atoms: _435  and  _437
REMARK  170  A    between atoms: _437  and  _438
REMARK  171  A    between atoms: _437  and  _440
REMARK  172  A    between atoms: _440  and  _441
REMARK  173  A    between atoms: _441  and  _442
REMARK  174  A    between atoms: _442  and  _443
REMARK  175  A    between atoms: _443  and  _444
REMARK  176  A    between atoms: _448  and  _450
REMARK  177  A    between atoms: _450  and  _451
REMARK  178  A    between atoms: _450  and  _453
REMARK  179  A    between atoms: _453  and  _454
REMARK  180  A    between atoms: _460  and  _462
REMARK  181  A    between atoms: _462  and  _463
REMARK  182  A    between atoms: _465  and  _467
REMARK  183  A    between atoms: _467  and  _468
REMARK  184  A    between atoms: _467  and  _470
REMARK  185  A    between atoms: _470  and  _471
REMARK  186  A    between atoms: _473  and  _475
REMARK  187  A    between atoms: _475  and  _476
REMARK  188  A    between atoms: _475  and  _478
REMARK  189  A    between atoms: _478  and  _479
REMARK  190  A    between atoms: _479  and  _480
REMARK  191  A    between atoms: _480  and  _481
REMARK  192  A    between atoms: _481  and  _482
REMARK  193  A    between atoms: _486  and  _488
REMARK  194  A    between atoms: _488  and  _489
REMARK  195  A    between atoms: _488  and  _491
REMARK  196  A    between atoms: _491  and  _492
REMARK  197  A    between atoms: _497  and  _499
REMARK  198  A    between atoms: _499  and  _500
REMARK  199  A    between atoms: _499  and  _502
REMARK  200  A    between atoms: _502  and  _503
REMARK  201  A    between atoms: _503  and  _504
REMARK  202  A    between atoms: _504  and  _505
REMARK  203  A    between atoms: _514  and  _516
REMARK  204  A    between atoms: _516  and  _517
REMARK  205  A    between atoms: _516  and  _519
REMARK  206  A    between atoms: _519  and  _520
REMARK  207  A    between atoms: _520  and  _521
REMARK  208  A    between atoms: _526  and  _528
REMARK  209  A    between atoms: _528  and  _529
REMARK  210  A    between atoms: _528  and  _531
REMARK  211  A    between atoms: _531  and  _532
REMARK  212  A    between atoms: _532  and  _533
REMARK  213  A    between atoms: _538  and  _540
REMARK  214  A    between atoms: _540  and  _541
REMARK  215  A    between atoms: _540  and  _543
REMARK  216  A    between atoms: _543  and  _544
REMARK  217  A    between atoms: _544  and  _545
REMARK  218  A    between atoms: _547  and  _549
REMARK  219  A    between atoms: _549  and  _550
REMARK  220  A    between atoms: _549  and  _552
REMARK  221  A    between atoms: _552  and  _553
REMARK  222  A    between atoms: _555  and  _557
REMARK  223  A    between atoms: _557  and  _558
REMARK  224  A    between atoms: _557  and  _560
REMARK  225  A    between atoms: _560  and  _561
REMARK  226  A    between atoms: _566  and  _567
REMARK  227  A    between atoms: _569  and  _571
REMARK  228  A    between atoms: _571  and  _572
REMARK  229  A    between atoms: _571  and  _574
REMARK  230  A    between atoms: _574  and  _575
REMARK  231  A    between atoms: _585  and  _587
REMARK  232  A    between atoms: _587  and  _588
REMARK  233  A    between atoms: _587  and  _590
REMARK  234  A    between atoms: _590  and  _591
REMARK  235  A    between atoms: _594  and  _596
REMARK  236  A    between atoms: _596  and  _597
REMARK  237  A    between atoms: _600  and  _602
REMARK  238  A    between atoms: _602  and  _603
REMARK  239  A    between atoms: _602  and  _605
REMARK  240  A    between atoms: _605  and  _606
REMARK                            x       y       z     vdW  Elec       q    Type
REMARK                         _______ _______ _______ _____ _____    ______ ____
ROOT
ATOM      1  O   HOH     1     -33.210   3.361  -9.784  0.00  0.00    +0.000 OA
ENDROOT
TORSDOF 0
