REMARK  Name = ../refined-set-2016/4x8v/4x8v_pocket.pdb
REMARK  201 active torsions:
REMARK  status: ('A' for Active; 'I' for Inactive)
REMARK    1  A    between atoms: _1  and  _3
REMARK    2  A    between atoms: _3  and  _4
REMARK    3  A    between atoms: _3  and  _6
REMARK    4  A    between atoms: _9  and  _11
REMARK    5  A    between atoms: _11  and  _12
REMARK    6  A    between atoms: _11  and  _14
REMARK    7  A    between atoms: _17  and  _19
REMARK    8  A    between atoms: _19  and  _20
REMARK    9  A    between atoms: _19  and  _22
REMARK   10  A    between atoms: _22  and  _23
REMARK   11  A    between atoms: _23  and  _24
REMARK   12  A    between atoms: _29  and  _31
REMARK   13  A    between atoms: _31  and  _32
REMARK   14  A    between atoms: _31  and  _34
REMARK   15  A    between atoms: _34  and  _35
REMARK   16  A    between atoms: _38  and  _40
REMARK   17  A    between atoms: _40  and  _41
REMARK   18  A    between atoms: _40  and  _43
REMARK   19  A    between atoms: _43  and  _44
REMARK   20  A    between atoms: _44  and  _79
REMARK   21  A    between atoms: _45  and  _47
REMARK   22  A    between atoms: _47  and  _48
REMARK   23  A    between atoms: _50  and  _52
REMARK   24  A    between atoms: _52  and  _53
REMARK   25  A    between atoms: _56  and  _58
REMARK   26  A    between atoms: _58  and  _59
REMARK   27  A    between atoms: _62  and  _64
REMARK   28  A    between atoms: _64  and  _65
REMARK   29  A    between atoms: _64  and  _67
REMARK   30  A    between atoms: _67  and  _68
REMARK   31  A    between atoms: _73  and  _75
REMARK   32  A    between atoms: _75  and  _76
REMARK   33  A    between atoms: _75  and  _78
REMARK   34  A    between atoms: _78  and  _79
REMARK   35  A    between atoms: _80  and  _82
REMARK   36  A    between atoms: _82  and  _83
REMARK   37  A    between atoms: _82  and  _85
REMARK   38  A    between atoms: _85  and  _86
REMARK   39  A    between atoms: _92  and  _94
REMARK   40  A    between atoms: _94  and  _95
REMARK   41  A    between atoms: _94  and  _97
REMARK   42  A    between atoms: _97  and  _98
REMARK   43  A    between atoms: _101  and  _103
REMARK   44  A    between atoms: _103  and  _104
REMARK   45  A    between atoms: _103  and  _106
REMARK   46  A    between atoms: _106  and  _107
REMARK   47  A    between atoms: _107  and  _108
REMARK   48  A    between atoms: _108  and  _109
REMARK   49  A    between atoms: _109  and  _110
REMARK   50  A    between atoms: _114  and  _116
REMARK   51  A    between atoms: _116  and  _117
REMARK   52  A    between atoms: _116  and  _119
REMARK   53  A    between atoms: _119  and  _120
REMARK   54  A    between atoms: _123  and  _125
REMARK   55  A    between atoms: _125  and  _126
REMARK   56  A    between atoms: _125  and  _128
REMARK   57  A    between atoms: _128  and  _129
REMARK   58  A    between atoms: _134  and  _135
REMARK   59  A    between atoms: _137  and  _139
REMARK   60  A    between atoms: _139  and  _140
REMARK   61  A    between atoms: _139  and  _142
REMARK   62  A    between atoms: _146  and  _147
REMARK   63  A    between atoms: _152  and  _154
REMARK   64  A    between atoms: _154  and  _155
REMARK   65  A    between atoms: _157  and  _159
REMARK   66  A    between atoms: _159  and  _160
REMARK   67  A    between atoms: _159  and  _162
REMARK   68  A    between atoms: _162  and  _163
REMARK   69  A    between atoms: _166  and  _168
REMARK   70  A    between atoms: _168  and  _169
REMARK   71  A    between atoms: _168  and  _171
REMARK   72  A    between atoms: _171  and  _172
REMARK   73  A    between atoms: _175  and  _177
REMARK   74  A    between atoms: _177  and  _178
REMARK   75  A    between atoms: _177  and  _180
REMARK   76  A    between atoms: _180  and  _181
REMARK   77  A    between atoms: _186  and  _188
REMARK   78  A    between atoms: _188  and  _189
REMARK   79  A    between atoms: _188  and  _191
REMARK   80  A    between atoms: _191  and  _192
REMARK   81  A    between atoms: _195  and  _197
REMARK   82  A    between atoms: _197  and  _198
REMARK   83  A    between atoms: _197  and  _200
REMARK   84  A    between atoms: _203  and  _205
REMARK   85  A    between atoms: _205  and  _206
REMARK   86  A    between atoms: _205  and  _208
REMARK   87  A    between atoms: _208  and  _209
REMARK   88  A    between atoms: _209  and  _210
REMARK   89  A    between atoms: _215  and  _217
REMARK   90  A    between atoms: _217  and  _218
REMARK   91  A    between atoms: _217  and  _220
REMARK   92  A    between atoms: _220  and  _221
REMARK   93  A    between atoms: _224  and  _226
REMARK   94  A    between atoms: _226  and  _227
REMARK   95  A    between atoms: _226  and  _229
REMARK   96  A    between atoms: _229  and  _230
REMARK   97  A    between atoms: _233  and  _235
REMARK   98  A    between atoms: _235  and  _236
REMARK   99  A    between atoms: _235  and  _238
REMARK  100  A    between atoms: _238  and  _239
REMARK  101  A    between atoms: _242  and  _243
REMARK  102  A    between atoms: _248  and  _250
REMARK  103  A    between atoms: _250  and  _251
REMARK  104  A    between atoms: _254  and  _256
REMARK  105  A    between atoms: _256  and  _257
REMARK  106  A    between atoms: _256  and  _259
REMARK  107  A    between atoms: _259  and  _260
REMARK  108  A    between atoms: _265  and  _266
REMARK  109  A    between atoms: _268  and  _270
REMARK  110  A    between atoms: _270  and  _271
REMARK  111  A    between atoms: _270  and  _273
REMARK  112  A    between atoms: _273  and  _274
REMARK  113  A    between atoms: _274  and  _275
REMARK  114  A    between atoms: _275  and  _276
REMARK  115  A    between atoms: _276  and  _277
REMARK  116  A    between atoms: _281  and  _283
REMARK  117  A    between atoms: _283  and  _284
REMARK  118  A    between atoms: _283  and  _286
REMARK  119  A    between atoms: _286  and  _287
REMARK  120  A    between atoms: _290  and  _292
REMARK  121  A    between atoms: _292  and  _293
REMARK  122  A    between atoms: _292  and  _295
REMARK  123  A    between atoms: _295  and  _296
REMARK  124  A    between atoms: _298  and  _300
REMARK  125  A    between atoms: _300  and  _301
REMARK  126  A    between atoms: _300  and  _303
REMARK  127  A    between atoms: _303  and  _304
REMARK  128  A    between atoms: _304  and  _419
REMARK  129  A    between atoms: _305  and  _307
REMARK  130  A    between atoms: _307  and  _308
REMARK  131  A    between atoms: _307  and  _310
REMARK  132  A    between atoms: _310  and  _311
REMARK  133  A    between atoms: _311  and  _312
REMARK  134  A    between atoms: _312  and  _313
REMARK  135  A    between atoms: _313  and  _314
REMARK  136  A    between atoms: _318  and  _320
REMARK  137  A    between atoms: _320  and  _321
REMARK  138  A    between atoms: _323  and  _325
REMARK  139  A    between atoms: _325  and  _326
REMARK  140  A    between atoms: _325  and  _328
REMARK  141  A    between atoms: _328  and  _329
REMARK  142  A    between atoms: _332  and  _334
REMARK  143  A    between atoms: _334  and  _335
REMARK  144  A    between atoms: _334  and  _337
REMARK  145  A    between atoms: _337  and  _338
REMARK  146  A    between atoms: _340  and  _342
REMARK  147  A    between atoms: _342  and  _343
REMARK  148  A    between atoms: _345  and  _347
REMARK  149  A    between atoms: _347  and  _348
REMARK  150  A    between atoms: _350  and  _352
REMARK  151  A    between atoms: _352  and  _353
REMARK  152  A    between atoms: _352  and  _355
REMARK  153  A    between atoms: _355  and  _356
REMARK  154  A    between atoms: _359  and  _361
REMARK  155  A    between atoms: _361  and  _362
REMARK  156  A    between atoms: _361  and  _364
REMARK  157  A    between atoms: _367  and  _369
REMARK  158  A    between atoms: _369  and  _370
REMARK  159  A    between atoms: _369  and  _372
REMARK  160  A    between atoms: _372  and  _373
REMARK  161  A    between atoms: _375  and  _377
REMARK  162  A    between atoms: _377  and  _378
REMARK  163  A    between atoms: _377  and  _380
REMARK  164  A    between atoms: _380  and  _381
REMARK  165  A    between atoms: _391  and  _393
REMARK  166  A    between atoms: _393  and  _394
REMARK  167  A    between atoms: _396  and  _398
REMARK  168  A    between atoms: _398  and  _399
REMARK  169  A    between atoms: _398  and  _401
REMARK  170  A    between atoms: _401  and  _402
REMARK  171  A    between atoms: _402  and  _403
REMARK  172  A    between atoms: _408  and  _410
REMARK  173  A    between atoms: _410  and  _411
REMARK  174  A    between atoms: _413  and  _415
REMARK  175  A    between atoms: _415  and  _416
REMARK  176  A    between atoms: _415  and  _418
REMARK  177  A    between atoms: _418  and  _419
REMARK  178  A    between atoms: _420  and  _422
REMARK  179  A    between atoms: _422  and  _423
REMARK  180  A    between atoms: _426  and  _428
REMARK  181  A    between atoms: _428  and  _429
REMARK  182  A    between atoms: _428  and  _431
REMARK  183  A    between atoms: _431  and  _432
REMARK  184  A    between atoms: _435  and  _437
REMARK  185  A    between atoms: _437  and  _438
REMARK  186  A    between atoms: _437  and  _440
REMARK  187  A    between atoms: _440  and  _441
REMARK  188  A    between atoms: _446  and  _448
REMARK  189  A    between atoms: _448  and  _449
REMARK  190  A    between atoms: _448  and  _451
REMARK  191  A    between atoms: _451  and  _452
REMARK  192  A    between atoms: _458  and  _460
REMARK  193  A    between atoms: _460  and  _461
REMARK  194  A    between atoms: _463  and  _465
REMARK  195  A    between atoms: _465  and  _466
REMARK  196  A    between atoms: _465  and  _468
REMARK  197  A    between atoms: _471  and  _473
REMARK  198  A    between atoms: _473  and  _474
REMARK  199  A    between atoms: _473  and  _476
REMARK  200  A    between atoms: _476  and  _477
REMARK  201  A    between atoms: _482  and  _483
REMARK                            x       y       z     vdW  Elec       q    Type
REMARK                         _______ _______ _______ _____ _____    ______ ____
ROOT
ATOM      1  CA  VAL A   1      18.814  34.968  33.237  0.00  0.00    +0.133 C 
ENDROOT
BRANCH   1   2
ATOM      2  CB  VAL A   1      17.482  35.422  33.920  0.00  0.00    +0.023 C 
ATOM      3  CG2 VAL A   1      17.709  35.877  35.372  0.00  0.00    +0.002 C 
ATOM      4  CG1 VAL A   1      16.784  36.512  33.123  0.00  0.00    +0.002 C 
ENDBRANCH   1   2
BRANCH   1   5
ATOM      5  N   VAL A   1      18.553  34.517  31.876  0.00  0.00    -0.239 NA
ATOM      6  H   VAL A   1      17.694  33.949  31.732  0.00  0.00    +0.142 HD
ENDBRANCH   1   5
BRANCH   1   7
ATOM      7  C   VAL A   1      19.421  33.755  33.965  0.00  0.00    +0.224 C 
ATOM      8  O   VAL A   1      18.898  32.644  33.860  0.00  0.00    -0.287 OA
ENDBRANCH   1   7
TORSDOF 3
REMARK  Name = ../refined-set-2016/4x8v/4x8v_pocket.pdb
REMARK  201 active torsions:
REMARK  status: ('A' for Active; 'I' for Inactive)
REMARK    1  A    between atoms: _1  and  _3
REMARK    2  A    between atoms: _3  and  _4
REMARK    3  A    between atoms: _3  and  _6
REMARK    4  A    between atoms: _9  and  _11
REMARK    5  A    between atoms: _11  and  _12
REMARK    6  A    between atoms: _11  and  _14
REMARK    7  A    between atoms: _17  and  _19
REMARK    8  A    between atoms: _19  and  _20
REMARK    9  A    between atoms: _19  and  _22
REMARK   10  A    between atoms: _22  and  _23
REMARK   11  A    between atoms: _23  and  _24
REMARK   12  A    between atoms: _29  and  _31
REMARK   13  A    between atoms: _31  and  _32
REMARK   14  A    between atoms: _31  and  _34
REMARK   15  A    between atoms: _34  and  _35
REMARK   16  A    between atoms: _38  and  _40
REMARK   17  A    between atoms: _40  and  _41
REMARK   18  A    between atoms: _40  and  _43
REMARK   19  A    between atoms: _43  and  _44
REMARK   20  A    between atoms: _44  and  _79
REMARK   21  A    between atoms: _45  and  _47
REMARK   22  A    between atoms: _47  and  _48
REMARK   23  A    between atoms: _50  and  _52
REMARK   24  A    between atoms: _52  and  _53
REMARK   25  A    between atoms: _56  and  _58
REMARK   26  A    between atoms: _58  and  _59
REMARK   27  A    between atoms: _62  and  _64
REMARK   28  A    between atoms: _64  and  _65
REMARK   29  A    between atoms: _64  and  _67
REMARK   30  A    between atoms: _67  and  _68
REMARK   31  A    between atoms: _73  and  _75
REMARK   32  A    between atoms: _75  and  _76
REMARK   33  A    between atoms: _75  and  _78
REMARK   34  A    between atoms: _78  and  _79
REMARK   35  A    between atoms: _80  and  _82
REMARK   36  A    between atoms: _82  and  _83
REMARK   37  A    between atoms: _82  and  _85
REMARK   38  A    between atoms: _85  and  _86
REMARK   39  A    between atoms: _92  and  _94
REMARK   40  A    between atoms: _94  and  _95
REMARK   41  A    between atoms: _94  and  _97
REMARK   42  A    between atoms: _97  and  _98
REMARK   43  A    between atoms: _101  and  _103
REMARK   44  A    between atoms: _103  and  _104
REMARK   45  A    between atoms: _103  and  _106
REMARK   46  A    between atoms: _106  and  _107
REMARK   47  A    between atoms: _107  and  _108
REMARK   48  A    between atoms: _108  and  _109
REMARK   49  A    between atoms: _109  and  _110
REMARK   50  A    between atoms: _114  and  _116
REMARK   51  A    between atoms: _116  and  _117
REMARK   52  A    between atoms: _116  and  _119
REMARK   53  A    between atoms: _119  and  _120
REMARK   54  A    between atoms: _123  and  _125
REMARK   55  A    between atoms: _125  and  _126
REMARK   56  A    between atoms: _125  and  _128
REMARK   57  A    between atoms: _128  and  _129
REMARK   58  A    between atoms: _134  and  _135
REMARK   59  A    between atoms: _137  and  _139
REMARK   60  A    between atoms: _139  and  _140
REMARK   61  A    between atoms: _139  and  _142
REMARK   62  A    between atoms: _146  and  _147
REMARK   63  A    between atoms: _152  and  _154
REMARK   64  A    between atoms: _154  and  _155
REMARK   65  A    between atoms: _157  and  _159
REMARK   66  A    between atoms: _159  and  _160
REMARK   67  A    between atoms: _159  and  _162
REMARK   68  A    between atoms: _162  and  _163
REMARK   69  A    between atoms: _166  and  _168
REMARK   70  A    between atoms: _168  and  _169
REMARK   71  A    between atoms: _168  and  _171
REMARK   72  A    between atoms: _171  and  _172
REMARK   73  A    between atoms: _175  and  _177
REMARK   74  A    between atoms: _177  and  _178
REMARK   75  A    between atoms: _177  and  _180
REMARK   76  A    between atoms: _180  and  _181
REMARK   77  A    between atoms: _186  and  _188
REMARK   78  A    between atoms: _188  and  _189
REMARK   79  A    between atoms: _188  and  _191
REMARK   80  A    between atoms: _191  and  _192
REMARK   81  A    between atoms: _195  and  _197
REMARK   82  A    between atoms: _197  and  _198
REMARK   83  A    between atoms: _197  and  _200
REMARK   84  A    between atoms: _203  and  _205
REMARK   85  A    between atoms: _205  and  _206
REMARK   86  A    between atoms: _205  and  _208
REMARK   87  A    between atoms: _208  and  _209
REMARK   88  A    between atoms: _209  and  _210
REMARK   89  A    between atoms: _215  and  _217
REMARK   90  A    between atoms: _217  and  _218
REMARK   91  A    between atoms: _217  and  _220
REMARK   92  A    between atoms: _220  and  _221
REMARK   93  A    between atoms: _224  and  _226
REMARK   94  A    between atoms: _226  and  _227
REMARK   95  A    between atoms: _226  and  _229
REMARK   96  A    between atoms: _229  and  _230
REMARK   97  A    between atoms: _233  and  _235
REMARK   98  A    between atoms: _235  and  _236
REMARK   99  A    between atoms: _235  and  _238
REMARK  100  A    between atoms: _238  and  _239
REMARK  101  A    between atoms: _242  and  _243
REMARK  102  A    between atoms: _248  and  _250
REMARK  103  A    between atoms: _250  and  _251
REMARK  104  A    between atoms: _254  and  _256
REMARK  105  A    between atoms: _256  and  _257
REMARK  106  A    between atoms: _256  and  _259
REMARK  107  A    between atoms: _259  and  _260
REMARK  108  A    between atoms: _265  and  _266
REMARK  109  A    between atoms: _268  and  _270
REMARK  110  A    between atoms: _270  and  _271
REMARK  111  A    between atoms: _270  and  _273
REMARK  112  A    between atoms: _273  and  _274
REMARK  113  A    between atoms: _274  and  _275
REMARK  114  A    between atoms: _275  and  _276
REMARK  115  A    between atoms: _276  and  _277
REMARK  116  A    between atoms: _281  and  _283
REMARK  117  A    between atoms: _283  and  _284
REMARK  118  A    between atoms: _283  and  _286
REMARK  119  A    between atoms: _286  and  _287
REMARK  120  A    between atoms: _290  and  _292
REMARK  121  A    between atoms: _292  and  _293
REMARK  122  A    between atoms: _292  and  _295
REMARK  123  A    between atoms: _295  and  _296
REMARK  124  A    between atoms: _298  and  _300
REMARK  125  A    between atoms: _300  and  _301
REMARK  126  A    between atoms: _300  and  _303
REMARK  127  A    between atoms: _303  and  _304
REMARK  128  A    between atoms: _304  and  _419
REMARK  129  A    between atoms: _305  and  _307
REMARK  130  A    between atoms: _307  and  _308
REMARK  131  A    between atoms: _307  and  _310
REMARK  132  A    between atoms: _310  and  _311
REMARK  133  A    between atoms: _311  and  _312
REMARK  134  A    between atoms: _312  and  _313
REMARK  135  A    between atoms: _313  and  _314
REMARK  136  A    between atoms: _318  and  _320
REMARK  137  A    between atoms: _320  and  _321
REMARK  138  A    between atoms: _323  and  _325
REMARK  139  A    between atoms: _325  and  _326
REMARK  140  A    between atoms: _325  and  _328
REMARK  141  A    between atoms: _328  and  _329
REMARK  142  A    between atoms: _332  and  _334
REMARK  143  A    between atoms: _334  and  _335
REMARK  144  A    between atoms: _334  and  _337
REMARK  145  A    between atoms: _337  and  _338
REMARK  146  A    between atoms: _340  and  _342
REMARK  147  A    between atoms: _342  and  _343
REMARK  148  A    between atoms: _345  and  _347
REMARK  149  A    between atoms: _347  and  _348
REMARK  150  A    between atoms: _350  and  _352
REMARK  151  A    between atoms: _352  and  _353
REMARK  152  A    between atoms: _352  and  _355
REMARK  153  A    between atoms: _355  and  _356
REMARK  154  A    between atoms: _359  and  _361
REMARK  155  A    between atoms: _361  and  _362
REMARK  156  A    between atoms: _361  and  _364
REMARK  157  A    between atoms: _367  and  _369
REMARK  158  A    between atoms: _369  and  _370
REMARK  159  A    between atoms: _369  and  _372
REMARK  160  A    between atoms: _372  and  _373
REMARK  161  A    between atoms: _375  and  _377
REMARK  162  A    between atoms: _377  and  _378
REMARK  163  A    between atoms: _377  and  _380
REMARK  164  A    between atoms: _380  and  _381
REMARK  165  A    between atoms: _391  and  _393
REMARK  166  A    between atoms: _393  and  _394
REMARK  167  A    between atoms: _396  and  _398
REMARK  168  A    between atoms: _398  and  _399
REMARK  169  A    between atoms: _398  and  _401
REMARK  170  A    between atoms: _401  and  _402
REMARK  171  A    between atoms: _402  and  _403
REMARK  172  A    between atoms: _408  and  _410
REMARK  173  A    between atoms: _410  and  _411
REMARK  174  A    between atoms: _413  and  _415
REMARK  175  A    between atoms: _415  and  _416
REMARK  176  A    between atoms: _415  and  _418
REMARK  177  A    between atoms: _418  and  _419
REMARK  178  A    between atoms: _420  and  _422
REMARK  179  A    between atoms: _422  and  _423
REMARK  180  A    between atoms: _426  and  _428
REMARK  181  A    between atoms: _428  and  _429
REMARK  182  A    between atoms: _428  and  _431
REMARK  183  A    between atoms: _431  and  _432
REMARK  184  A    between atoms: _435  and  _437
REMARK  185  A    between atoms: _437  and  _438
REMARK  186  A    between atoms: _437  and  _440
REMARK  187  A    between atoms: _440  and  _441
REMARK  188  A    between atoms: _446  and  _448
REMARK  189  A    between atoms: _448  and  _449
REMARK  190  A    between atoms: _448  and  _451
REMARK  191  A    between atoms: _451  and  _452
REMARK  192  A    between atoms: _458  and  _460
REMARK  193  A    between atoms: _460  and  _461
REMARK  194  A    between atoms: _463  and  _465
REMARK  195  A    between atoms: _465  and  _466
REMARK  196  A    between atoms: _465  and  _468
REMARK  197  A    between atoms: _471  and  _473
REMARK  198  A    between atoms: _473  and  _474
REMARK  199  A    between atoms: _473  and  _476
REMARK  200  A    between atoms: _476  and  _477
REMARK  201  A    between atoms: _482  and  _483
REMARK                            x       y       z     vdW  Elec       q    Type
REMARK                         _______ _______ _______ _____ _____    ______ ____
ROOT
ATOM      1  CA  VAL A   1      14.474  42.662  11.086  0.00  0.00    +0.133 C 
ENDROOT
BRANCH   1   2
ATOM      2  CB  VAL A   1      12.962  42.499  11.471  0.00  0.00    +0.023 C 
ATOM      3  CG2 VAL A   1      12.644  43.067  12.856  0.00  0.00    +0.002 C 
ATOM      4  CG1 VAL A   1      12.038  43.081  10.394  0.00  0.00    +0.002 C 
ENDBRANCH   1   2
BRANCH   1   5
ATOM      5  N   VAL A   1      15.436  41.938  11.915  0.00  0.00    -0.239 NA
ATOM      6  H   VAL A   1      15.836  42.413  12.749  0.00  0.00    +0.142 HD
ENDBRANCH   1   5
BRANCH   1   7
ATOM      7  C   VAL A   1      14.999  44.082  10.984  0.00  0.00    +0.224 C 
ATOM      8  O   VAL A   1      15.200  44.726  12.022  0.00  0.00    -0.287 OA
ENDBRANCH   1   7
TORSDOF 3
REMARK  Name = ../refined-set-2016/4x8v/4x8v_pocket.pdb
REMARK  201 active torsions:
REMARK  status: ('A' for Active; 'I' for Inactive)
REMARK    1  A    between atoms: _1  and  _3
REMARK    2  A    between atoms: _3  and  _4
REMARK    3  A    between atoms: _3  and  _6
REMARK    4  A    between atoms: _9  and  _11
REMARK    5  A    between atoms: _11  and  _12
REMARK    6  A    between atoms: _11  and  _14
REMARK    7  A    between atoms: _17  and  _19
REMARK    8  A    between atoms: _19  and  _20
REMARK    9  A    between atoms: _19  and  _22
REMARK   10  A    between atoms: _22  and  _23
REMARK   11  A    between atoms: _23  and  _24
REMARK   12  A    between atoms: _29  and  _31
REMARK   13  A    between atoms: _31  and  _32
REMARK   14  A    between atoms: _31  and  _34
REMARK   15  A    between atoms: _34  and  _35
REMARK   16  A    between atoms: _38  and  _40
REMARK   17  A    between atoms: _40  and  _41
REMARK   18  A    between atoms: _40  and  _43
REMARK   19  A    between atoms: _43  and  _44
REMARK   20  A    between atoms: _44  and  _79
REMARK   21  A    between atoms: _45  and  _47
REMARK   22  A    between atoms: _47  and  _48
REMARK   23  A    between atoms: _50  and  _52
REMARK   24  A    between atoms: _52  and  _53
REMARK   25  A    between atoms: _56  and  _58
REMARK   26  A    between atoms: _58  and  _59
REMARK   27  A    between atoms: _62  and  _64
REMARK   28  A    between atoms: _64  and  _65
REMARK   29  A    between atoms: _64  and  _67
REMARK   30  A    between atoms: _67  and  _68
REMARK   31  A    between atoms: _73  and  _75
REMARK   32  A    between atoms: _75  and  _76
REMARK   33  A    between atoms: _75  and  _78
REMARK   34  A    between atoms: _78  and  _79
REMARK   35  A    between atoms: _80  and  _82
REMARK   36  A    between atoms: _82  and  _83
REMARK   37  A    between atoms: _82  and  _85
REMARK   38  A    between atoms: _85  and  _86
REMARK   39  A    between atoms: _92  and  _94
REMARK   40  A    between atoms: _94  and  _95
REMARK   41  A    between atoms: _94  and  _97
REMARK   42  A    between atoms: _97  and  _98
REMARK   43  A    between atoms: _101  and  _103
REMARK   44  A    between atoms: _103  and  _104
REMARK   45  A    between atoms: _103  and  _106
REMARK   46  A    between atoms: _106  and  _107
REMARK   47  A    between atoms: _107  and  _108
REMARK   48  A    between atoms: _108  and  _109
REMARK   49  A    between atoms: _109  and  _110
REMARK   50  A    between atoms: _114  and  _116
REMARK   51  A    between atoms: _116  and  _117
REMARK   52  A    between atoms: _116  and  _119
REMARK   53  A    between atoms: _119  and  _120
REMARK   54  A    between atoms: _123  and  _125
REMARK   55  A    between atoms: _125  and  _126
REMARK   56  A    between atoms: _125  and  _128
REMARK   57  A    between atoms: _128  and  _129
REMARK   58  A    between atoms: _134  and  _135
REMARK   59  A    between atoms: _137  and  _139
REMARK   60  A    between atoms: _139  and  _140
REMARK   61  A    between atoms: _139  and  _142
REMARK   62  A    between atoms: _146  and  _147
REMARK   63  A    between atoms: _152  and  _154
REMARK   64  A    between atoms: _154  and  _155
REMARK   65  A    between atoms: _157  and  _159
REMARK   66  A    between atoms: _159  and  _160
REMARK   67  A    between atoms: _159  and  _162
REMARK   68  A    between atoms: _162  and  _163
REMARK   69  A    between atoms: _166  and  _168
REMARK   70  A    between atoms: _168  and  _169
REMARK   71  A    between atoms: _168  and  _171
REMARK   72  A    between atoms: _171  and  _172
REMARK   73  A    between atoms: _175  and  _177
REMARK   74  A    between atoms: _177  and  _178
REMARK   75  A    between atoms: _177  and  _180
REMARK   76  A    between atoms: _180  and  _181
REMARK   77  A    between atoms: _186  and  _188
REMARK   78  A    between atoms: _188  and  _189
REMARK   79  A    between atoms: _188  and  _191
REMARK   80  A    between atoms: _191  and  _192
REMARK   81  A    between atoms: _195  and  _197
REMARK   82  A    between atoms: _197  and  _198
REMARK   83  A    between atoms: _197  and  _200
REMARK   84  A    between atoms: _203  and  _205
REMARK   85  A    between atoms: _205  and  _206
REMARK   86  A    between atoms: _205  and  _208
REMARK   87  A    between atoms: _208  and  _209
REMARK   88  A    between atoms: _209  and  _210
REMARK   89  A    between atoms: _215  and  _217
REMARK   90  A    between atoms: _217  and  _218
REMARK   91  A    between atoms: _217  and  _220
REMARK   92  A    between atoms: _220  and  _221
REMARK   93  A    between atoms: _224  and  _226
REMARK   94  A    between atoms: _226  and  _227
REMARK   95  A    between atoms: _226  and  _229
REMARK   96  A    between atoms: _229  and  _230
REMARK   97  A    between atoms: _233  and  _235
REMARK   98  A    between atoms: _235  and  _236
REMARK   99  A    between atoms: _235  and  _238
REMARK  100  A    between atoms: _238  and  _239
REMARK  101  A    between atoms: _242  and  _243
REMARK  102  A    between atoms: _248  and  _250
REMARK  103  A    between atoms: _250  and  _251
REMARK  104  A    between atoms: _254  and  _256
REMARK  105  A    between atoms: _256  and  _257
REMARK  106  A    between atoms: _256  and  _259
REMARK  107  A    between atoms: _259  and  _260
REMARK  108  A    between atoms: _265  and  _266
REMARK  109  A    between atoms: _268  and  _270
REMARK  110  A    between atoms: _270  and  _271
REMARK  111  A    between atoms: _270  and  _273
REMARK  112  A    between atoms: _273  and  _274
REMARK  113  A    between atoms: _274  and  _275
REMARK  114  A    between atoms: _275  and  _276
REMARK  115  A    between atoms: _276  and  _277
REMARK  116  A    between atoms: _281  and  _283
REMARK  117  A    between atoms: _283  and  _284
REMARK  118  A    between atoms: _283  and  _286
REMARK  119  A    between atoms: _286  and  _287
REMARK  120  A    between atoms: _290  and  _292
REMARK  121  A    between atoms: _292  and  _293
REMARK  122  A    between atoms: _292  and  _295
REMARK  123  A    between atoms: _295  and  _296
REMARK  124  A    between atoms: _298  and  _300
REMARK  125  A    between atoms: _300  and  _301
REMARK  126  A    between atoms: _300  and  _303
REMARK  127  A    between atoms: _303  and  _304
REMARK  128  A    between atoms: _304  and  _419
REMARK  129  A    between atoms: _305  and  _307
REMARK  130  A    between atoms: _307  and  _308
REMARK  131  A    between atoms: _307  and  _310
REMARK  132  A    between atoms: _310  and  _311
REMARK  133  A    between atoms: _311  and  _312
REMARK  134  A    between atoms: _312  and  _313
REMARK  135  A    between atoms: _313  and  _314
REMARK  136  A    between atoms: _318  and  _320
REMARK  137  A    between atoms: _320  and  _321
REMARK  138  A    between atoms: _323  and  _325
REMARK  139  A    between atoms: _325  and  _326
REMARK  140  A    between atoms: _325  and  _328
REMARK  141  A    between atoms: _328  and  _329
REMARK  142  A    between atoms: _332  and  _334
REMARK  143  A    between atoms: _334  and  _335
REMARK  144  A    between atoms: _334  and  _337
REMARK  145  A    between atoms: _337  and  _338
REMARK  146  A    between atoms: _340  and  _342
REMARK  147  A    between atoms: _342  and  _343
REMARK  148  A    between atoms: _345  and  _347
REMARK  149  A    between atoms: _347  and  _348
REMARK  150  A    between atoms: _350  and  _352
REMARK  151  A    between atoms: _352  and  _353
REMARK  152  A    between atoms: _352  and  _355
REMARK  153  A    between atoms: _355  and  _356
REMARK  154  A    between atoms: _359  and  _361
REMARK  155  A    between atoms: _361  and  _362
REMARK  156  A    between atoms: _361  and  _364
REMARK  157  A    between atoms: _367  and  _369
REMARK  158  A    between atoms: _369  and  _370
REMARK  159  A    between atoms: _369  and  _372
REMARK  160  A    between atoms: _372  and  _373
REMARK  161  A    between atoms: _375  and  _377
REMARK  162  A    between atoms: _377  and  _378
REMARK  163  A    between atoms: _377  and  _380
REMARK  164  A    between atoms: _380  and  _381
REMARK  165  A    between atoms: _391  and  _393
REMARK  166  A    between atoms: _393  and  _394
REMARK  167  A    between atoms: _396  and  _398
REMARK  168  A    between atoms: _398  and  _399
REMARK  169  A    between atoms: _398  and  _401
REMARK  170  A    between atoms: _401  and  _402
REMARK  171  A    between atoms: _402  and  _403
REMARK  172  A    between atoms: _408  and  _410
REMARK  173  A    between atoms: _410  and  _411
REMARK  174  A    between atoms: _413  and  _415
REMARK  175  A    between atoms: _415  and  _416
REMARK  176  A    between atoms: _415  and  _418
REMARK  177  A    between atoms: _418  and  _419
REMARK  178  A    between atoms: _420  and  _422
REMARK  179  A    between atoms: _422  and  _423
REMARK  180  A    between atoms: _426  and  _428
REMARK  181  A    between atoms: _428  and  _429
REMARK  182  A    between atoms: _428  and  _431
REMARK  183  A    between atoms: _431  and  _432
REMARK  184  A    between atoms: _435  and  _437
REMARK  185  A    between atoms: _437  and  _438
REMARK  186  A    between atoms: _437  and  _440
REMARK  187  A    between atoms: _440  and  _441
REMARK  188  A    between atoms: _446  and  _448
REMARK  189  A    between atoms: _448  and  _449
REMARK  190  A    between atoms: _448  and  _451
REMARK  191  A    between atoms: _451  and  _452
REMARK  192  A    between atoms: _458  and  _460
REMARK  193  A    between atoms: _460  and  _461
REMARK  194  A    between atoms: _463  and  _465
REMARK  195  A    between atoms: _465  and  _466
REMARK  196  A    between atoms: _465  and  _468
REMARK  197  A    between atoms: _471  and  _473
REMARK  198  A    between atoms: _473  and  _474
REMARK  199  A    between atoms: _473  and  _476
REMARK  200  A    between atoms: _476  and  _477
REMARK  201  A    between atoms: _482  and  _483
REMARK                            x       y       z     vdW  Elec       q    Type
REMARK                         _______ _______ _______ _____ _____    ______ ____
ROOT
ATOM      1  CA  CYS A   4       7.986  36.646  16.801  0.00  0.00    +0.160 C 
ENDROOT
BRANCH   1   2
ATOM      2  N   CYS A   4       6.861  35.853  17.297  0.00  0.00    -0.296 N 
ATOM      3  C   HIS A   3       5.693  36.340  17.751  0.00  0.00    +0.241 C 
ATOM      4  O   HIS A   3       5.442  37.536  17.786  0.00  0.00    -0.273 OA
ATOM      5  H   CYS A   4       6.975  34.819  17.299  0.00  0.00    +0.150 HD
BRANCH   3   6
ATOM      6  CA  HIS A   3       4.594  35.326  18.138  0.00  0.00    +0.155 C 
BRANCH   6   7
ATOM      7  N   HIS A   3       4.772  34.010  17.528  0.00  0.00    -0.297 N 
ATOM      8  H   HIS A   3       4.957  33.194  18.146  0.00  0.00    +0.150 HD
ATOM      9  C   ALA A   2       4.705  33.808  16.178  0.00  0.00    +0.241 C 
ATOM     10  O   ALA A   2       4.567  34.728  15.381  0.00  0.00    -0.273 OA
BRANCH   9  11
ATOM     11  CA  ALA A   2       4.832  32.356  15.644  0.00  0.00    +0.149 C 
ATOM     12  CB  ALA A   2       3.480  31.671  15.666  0.00  0.00    +0.031 C 
BRANCH  11  13
ATOM     13  N   ALA A   2       5.786  31.576  16.415  0.00  0.00    -0.297 N 
ATOM     14  H   ALA A   2       5.444  30.718  16.894  0.00  0.00    +0.150 HD
ATOM     15  C   ALA A   1       7.084  31.899  16.545  0.00  0.00    +0.238 C 
ATOM     16  O   ALA A   1       7.586  32.889  16.019  0.00  0.00    -0.274 OA
BRANCH  15  17
ATOM     17  CA  ALA A   1       7.931  31.018  17.435  0.00  0.00    +0.145 C 
ATOM     18  CB  ALA A   1       8.018  31.621  18.847  0.00  0.00    +0.028 C 
BRANCH  17  19
ATOM     19  N   ALA A   1       9.265  30.863  16.851  0.00  0.00    -0.238 NA
ATOM     20  H   ALA A   1       9.927  31.665  16.879  0.00  0.00    +0.142 HD
ENDBRANCH  17  19
ENDBRANCH  15  17
ENDBRANCH  11  13
ENDBRANCH   9  11
ENDBRANCH   6   7
BRANCH   6  21
ATOM     21  CB  HIS A   3       4.386  35.207  19.651  0.00  0.00    +0.076 C 
BRANCH  21  22
ATOM     22  CG  HIS A   3       5.607  35.244  20.509  0.00  0.00    +0.082 A 
ATOM     23  ND1 HIS A   3       6.151  34.084  21.034  0.00  0.00    -0.227 NA
ATOM     24  CE1 HIS A   3       7.160  34.466  21.790  0.00  0.00    +0.199 A 
ATOM     25  NE2 HIS A   3       7.283  35.787  21.803  0.00  0.00    -0.221 NA
ATOM     26  CD2 HIS A   3       6.273  36.302  21.017  0.00  0.00    +0.115 A 
ENDBRANCH  21  22
ENDBRANCH   6  21
ENDBRANCH   3   6
ENDBRANCH   1   2
BRANCH   1  27
ATOM     27  C   CYS A   4       7.614  37.475  15.579  0.00  0.00    +0.242 C 
ATOM     28  O   CYS A   4       8.295  38.453  15.282  0.00  0.00    -0.273 OA
ATOM     29  N   PHE A   5       6.596  37.048  14.826  0.00  0.00    -0.297 N 
ATOM     30  H   PHE A   5       6.043  36.226  15.141  0.00  0.00    +0.150 HD
BRANCH  29  31
ATOM     31  CA  PHE A   5       6.240  37.708  13.569  0.00  0.00    +0.153 C 
BRANCH  31  32
ATOM     32  C   PHE A   5       4.946  38.509  13.632  0.00  0.00    +0.241 C 
ATOM     33  N   ASP A   6       4.381  38.712  14.850  0.00  0.00    -0.297 N 
ATOM     34  H   ASP A   6       4.872  38.333  15.685  0.00  0.00    +0.150 HD
ATOM     35  O   PHE A   5       4.479  38.952  12.583  0.00  0.00    -0.273 OA
BRANCH  33  36
ATOM     36  CA  ASP A   6       3.116  39.435  15.062  0.00  0.00    +0.160 C 
BRANCH  36  37
ATOM     37  C   ASP A   6       3.123  40.915  14.585  0.00  0.00    +0.241 C 
ATOM     38  N   LYS A   7       4.218  41.621  14.802  0.00  0.00    -0.297 N 
ATOM     39  H   LYS A   7       5.044  41.148  15.220  0.00  0.00    +0.150 HD
ATOM     40  O   ASP A   6       2.127  41.397  14.051  0.00  0.00    -0.273 OA
BRANCH  38  41
ATOM     41  CA  LYS A   7       4.311  43.045  14.475  0.00  0.00    +0.149 C 
BRANCH  41  42
ATOM     42  C   LYS A   7       5.117  43.317  13.200  0.00  0.00    +0.241 C 
ATOM     43  O   LYS A   7       5.494  44.465  12.960  0.00  0.00    -0.273 OA
ATOM     44  N   ILE A   8       5.379  42.284  12.385  0.00  0.00    -0.298 N 
ATOM     45  H   ILE A   8       5.013  41.340  12.623  0.00  0.00    +0.150 HD
BRANCH  44  46
ATOM     46  CA  ILE A   8       6.173  42.462  11.162  0.00  0.00    +0.137 C 
BRANCH  46  47
ATOM     47  CB  ILE A   8       6.858  41.115  10.688  0.00  0.00    +0.026 C 
ATOM     48  CG2 ILE A   8       7.512  41.232   9.311  0.00  0.00    +0.002 C 
BRANCH  47  49
ATOM     49  CG1 ILE A   8       7.866  40.536  11.720  0.00  0.00    +0.002 C 
ATOM     50  CD1 ILE A   8       8.903  41.487  12.340  0.00  0.00    +0.000 C 
ENDBRANCH  47  49
ENDBRANCH  46  47
BRANCH  46  51
ATOM     51  C   ILE A   8       5.365  43.126  10.044  0.00  0.00    +0.227 C 
ATOM     52  O   ILE A   8       4.269  42.670   9.723  0.00  0.00    -0.286 OA
ENDBRANCH  46  51
ENDBRANCH  44  46
ENDBRANCH  41  42
BRANCH  41  53
ATOM     53  CB  LYS A   7       4.905  43.831  15.672  0.00  0.00    +0.029 C 
BRANCH  53  54
ATOM     54  CG  LYS A   7       4.247  43.553  17.022  0.00  0.00    +0.000 C 
BRANCH  54  55
ATOM     55  CD  LYS A   7       4.971  44.346  18.108  0.00  0.00    -0.024 C 
BRANCH  55  56
ATOM     56  CE  LYS A   7       4.476  44.114  19.519  0.00  0.00    -0.086 C 
BRANCH  56  57
ATOM     57  NZ  LYS A   7       5.265  44.908  20.509  0.00  0.00    +0.380 N 
ATOM     58  HZ1 LYS A   7       4.901  44.727  21.466  0.00  0.00    -0.089 HD
ATOM     59  HZ2 LYS A   7       6.265  44.627  20.458  0.00  0.00    -0.089 HD
ATOM     60  HZ3 LYS A   7       5.176  45.921  20.289  0.00  0.00    -0.089 HD
ENDBRANCH  56  57
ENDBRANCH  55  56
ENDBRANCH  54  55
ENDBRANCH  53  54
ENDBRANCH  41  53
ENDBRANCH  38  41
ENDBRANCH  36  37
BRANCH  36  61
ATOM     61  CB  ASP A   6       2.661  39.352  16.546  0.00  0.00    +0.143 C 
BRANCH  61  62
ATOM     62  CG  ASP A   6       1.845  38.130  16.909  0.00  0.00    +0.367 C 
ATOM     63  OD2 ASP A   6       1.204  38.138  17.984  0.00  0.00    -0.246 OA
ATOM     64  OD1 ASP A   6       1.869  37.154  16.139  0.00  0.00    -0.246 OA
ENDBRANCH  61  62
ENDBRANCH  36  61
ENDBRANCH  33  36
ENDBRANCH  31  32
BRANCH  31  65
ATOM     65  CB  PHE A   5       6.217  36.666  12.427  0.00  0.00    +0.055 C 
BRANCH  65  66
ATOM     66  CG  PHE A   5       7.510  35.881  12.366  0.00  0.00    -0.020 A 
ATOM     67  CD2 PHE A   5       7.632  34.654  13.017  0.00  0.00    -0.004 A 
ATOM     68  CE2 PHE A   5       8.852  33.979  13.044  0.00  0.00    -0.000 A 
ATOM     69  CZ  PHE A   5       9.949  34.503  12.390  0.00  0.00    -0.000 A 
ATOM     70  CE1 PHE A   5       9.844  35.703  11.719  0.00  0.00    -0.000 A 
ATOM     71  CD1 PHE A   5       8.630  36.401  11.721  0.00  0.00    -0.004 A 
ENDBRANCH  65  66
ENDBRANCH  31  65
ENDBRANCH  29  31
ENDBRANCH   1  27
BRANCH   1  72
ATOM     72  CB  CYS A   4       9.161  35.731  16.467  0.00  0.00    +0.098 C 
BRANCH  72  73
ATOM     73  SG  CYS A   4      10.005  35.044  17.905  0.00  0.00    -0.080 S 
BRANCH  73  74
ATOM     74  SG  HIS A   3      11.377  36.462  18.312  0.00  0.00    -0.080 S 
BRANCH  74  75
ATOM     75  CB  HIS A   3      12.881  35.917  17.470  0.00  0.00    +0.098 C 
BRANCH  75  76
ATOM     76  CA  HIS A   3      14.169  36.519  18.044  0.00  0.00    +0.160 C 
BRANCH  76  77
ATOM     77  C   HIS A   3      15.311  35.575  17.816  0.00  0.00    +0.242 C 
ATOM     78  N   CYS A   4      15.186  34.412  18.443  0.00  0.00    -0.296 N 
ATOM     79  H   CYS A   4      14.425  34.314  19.145  0.00  0.00    +0.150 HD
ATOM     80  O   HIS A   3      16.205  35.850  17.014  0.00  0.00    -0.273 OA
BRANCH  78  81
ATOM     81  CA  CYS A   4      16.049  33.268  18.207  0.00  0.00    +0.163 C 
BRANCH  81  82
ATOM     82  C   CYS A   4      15.330  32.298  17.286  0.00  0.00    +0.229 C 
ATOM     83  O   CYS A   4      14.145  32.477  16.952  0.00  0.00    -0.286 OA
ENDBRANCH  81  82
ENDBRANCH  78  81
ENDBRANCH  76  77
BRANCH  76  86
ATOM     84  C   ALA A   2      13.810  38.941  17.657  0.00  0.00    +0.241 C 
ATOM     85  O   ALA A   2      13.019  39.075  18.590  0.00  0.00    -0.273 OA
ATOM     86  N   HIS A   3      14.430  37.798  17.383  0.00  0.00    -0.296 N 
ATOM     87  H   HIS A   3      15.158  37.814  16.640  0.00  0.00    +0.150 HD
BRANCH  84  88
ATOM     88  CA  ALA A   2      14.094  40.104  16.712  0.00  0.00    +0.149 C 
BRANCH  88  91
ATOM     89  C   ALA A   1      15.992  41.559  17.182  0.00  0.00    +0.238 C 
ATOM     90  O   ALA A   1      15.286  42.387  17.747  0.00  0.00    -0.274 OA
ATOM     91  N   ALA A   2      15.509  40.433  16.666  0.00  0.00    -0.297 N 
ATOM     92  H   ALA A   2      16.166  39.765  16.214  0.00  0.00    +0.150 HD
BRANCH  89  93
ATOM     93  CA  ALA A   1      17.491  41.789  17.047  0.00  0.00    +0.145 C 
BRANCH  93  94
ATOM     94  N   ALA A   1      17.720  43.037  16.356  0.00  0.00    -0.238 NA
ATOM     95  H   ALA A   1      18.268  43.755  16.871  0.00  0.00    +0.142 HD
ENDBRANCH  93  94
BRANCH  93  96
ATOM     96  CB  ALA A   1      18.133  41.898  18.428  0.00  0.00    +0.036 C 
BRANCH  96  97
ATOM     97  CG  ALA A   1      18.290  40.590  19.150  0.00  0.00    +0.087 C 
BRANCH  97  98
ATOM     98  CD  ALA A   1      19.090  40.745  20.408  0.00  0.00    +0.219 C 
ATOM     99  NE2 ALA A   1      18.619  40.120  21.453  0.00  0.00    -0.329 N 
ATOM    100 HE21 ALA A   1      19.158  40.114  22.342  0.00  0.00    +0.145 HD
ATOM    101 HE22 ALA A   1      17.704  39.628  21.396  0.00  0.00    +0.145 HD
ATOM    102  OE1 ALA A   1      20.173  41.341  20.435  0.00  0.00    -0.275 OA
ENDBRANCH  97  98
ENDBRANCH  96  97
ENDBRANCH  93  96
ENDBRANCH  89  93
ENDBRANCH  88  91
BRANCH  88 103
ATOM    103  CB  ALA A   2      13.538  39.812  15.287  0.00  0.00    +0.029 C 
BRANCH 103 104
ATOM    104  CG  ALA A   2      12.056  39.412  15.197  0.00  0.00    +0.002 C 
ATOM    105  CD2 ALA A   2      11.125  40.605  15.523  0.00  0.00    +0.000 C 
ATOM    106  CD1 ALA A   2      11.721  38.777  13.832  0.00  0.00    +0.000 C 
ENDBRANCH 103 104
ENDBRANCH  88 103
ENDBRANCH  84  88
ENDBRANCH  76  86
ENDBRANCH  75  76
ENDBRANCH  74  75
ENDBRANCH  73  74
ENDBRANCH  72  73
ENDBRANCH   1  72
TORSDOF 47
REMARK  Name = ../refined-set-2016/4x8v/4x8v_pocket.pdb
REMARK  201 active torsions:
REMARK  status: ('A' for Active; 'I' for Inactive)
REMARK    1  A    between atoms: _1  and  _3
REMARK    2  A    between atoms: _3  and  _4
REMARK    3  A    between atoms: _3  and  _6
REMARK    4  A    between atoms: _9  and  _11
REMARK    5  A    between atoms: _11  and  _12
REMARK    6  A    between atoms: _11  and  _14
REMARK    7  A    between atoms: _17  and  _19
REMARK    8  A    between atoms: _19  and  _20
REMARK    9  A    between atoms: _19  and  _22
REMARK   10  A    between atoms: _22  and  _23
REMARK   11  A    between atoms: _23  and  _24
REMARK   12  A    between atoms: _29  and  _31
REMARK   13  A    between atoms: _31  and  _32
REMARK   14  A    between atoms: _31  and  _34
REMARK   15  A    between atoms: _34  and  _35
REMARK   16  A    between atoms: _38  and  _40
REMARK   17  A    between atoms: _40  and  _41
REMARK   18  A    between atoms: _40  and  _43
REMARK   19  A    between atoms: _43  and  _44
REMARK   20  A    between atoms: _44  and  _79
REMARK   21  A    between atoms: _45  and  _47
REMARK   22  A    between atoms: _47  and  _48
REMARK   23  A    between atoms: _50  and  _52
REMARK   24  A    between atoms: _52  and  _53
REMARK   25  A    between atoms: _56  and  _58
REMARK   26  A    between atoms: _58  and  _59
REMARK   27  A    between atoms: _62  and  _64
REMARK   28  A    between atoms: _64  and  _65
REMARK   29  A    between atoms: _64  and  _67
REMARK   30  A    between atoms: _67  and  _68
REMARK   31  A    between atoms: _73  and  _75
REMARK   32  A    between atoms: _75  and  _76
REMARK   33  A    between atoms: _75  and  _78
REMARK   34  A    between atoms: _78  and  _79
REMARK   35  A    between atoms: _80  and  _82
REMARK   36  A    between atoms: _82  and  _83
REMARK   37  A    between atoms: _82  and  _85
REMARK   38  A    between atoms: _85  and  _86
REMARK   39  A    between atoms: _92  and  _94
REMARK   40  A    between atoms: _94  and  _95
REMARK   41  A    between atoms: _94  and  _97
REMARK   42  A    between atoms: _97  and  _98
REMARK   43  A    between atoms: _101  and  _103
REMARK   44  A    between atoms: _103  and  _104
REMARK   45  A    between atoms: _103  and  _106
REMARK   46  A    between atoms: _106  and  _107
REMARK   47  A    between atoms: _107  and  _108
REMARK   48  A    between atoms: _108  and  _109
REMARK   49  A    between atoms: _109  and  _110
REMARK   50  A    between atoms: _114  and  _116
REMARK   51  A    between atoms: _116  and  _117
REMARK   52  A    between atoms: _116  and  _119
REMARK   53  A    between atoms: _119  and  _120
REMARK   54  A    between atoms: _123  and  _125
REMARK   55  A    between atoms: _125  and  _126
REMARK   56  A    between atoms: _125  and  _128
REMARK   57  A    between atoms: _128  and  _129
REMARK   58  A    between atoms: _134  and  _135
REMARK   59  A    between atoms: _137  and  _139
REMARK   60  A    between atoms: _139  and  _140
REMARK   61  A    between atoms: _139  and  _142
REMARK   62  A    between atoms: _146  and  _147
REMARK   63  A    between atoms: _152  and  _154
REMARK   64  A    between atoms: _154  and  _155
REMARK   65  A    between atoms: _157  and  _159
REMARK   66  A    between atoms: _159  and  _160
REMARK   67  A    between atoms: _159  and  _162
REMARK   68  A    between atoms: _162  and  _163
REMARK   69  A    between atoms: _166  and  _168
REMARK   70  A    between atoms: _168  and  _169
REMARK   71  A    between atoms: _168  and  _171
REMARK   72  A    between atoms: _171  and  _172
REMARK   73  A    between atoms: _175  and  _177
REMARK   74  A    between atoms: _177  and  _178
REMARK   75  A    between atoms: _177  and  _180
REMARK   76  A    between atoms: _180  and  _181
REMARK   77  A    between atoms: _186  and  _188
REMARK   78  A    between atoms: _188  and  _189
REMARK   79  A    between atoms: _188  and  _191
REMARK   80  A    between atoms: _191  and  _192
REMARK   81  A    between atoms: _195  and  _197
REMARK   82  A    between atoms: _197  and  _198
REMARK   83  A    between atoms: _197  and  _200
REMARK   84  A    between atoms: _203  and  _205
REMARK   85  A    between atoms: _205  and  _206
REMARK   86  A    between atoms: _205  and  _208
REMARK   87  A    between atoms: _208  and  _209
REMARK   88  A    between atoms: _209  and  _210
REMARK   89  A    between atoms: _215  and  _217
REMARK   90  A    between atoms: _217  and  _218
REMARK   91  A    between atoms: _217  and  _220
REMARK   92  A    between atoms: _220  and  _221
REMARK   93  A    between atoms: _224  and  _226
REMARK   94  A    between atoms: _226  and  _227
REMARK   95  A    between atoms: _226  and  _229
REMARK   96  A    between atoms: _229  and  _230
REMARK   97  A    between atoms: _233  and  _235
REMARK   98  A    between atoms: _235  and  _236
REMARK   99  A    between atoms: _235  and  _238
REMARK  100  A    between atoms: _238  and  _239
REMARK  101  A    between atoms: _242  and  _243
REMARK  102  A    between atoms: _248  and  _250
REMARK  103  A    between atoms: _250  and  _251
REMARK  104  A    between atoms: _254  and  _256
REMARK  105  A    between atoms: _256  and  _257
REMARK  106  A    between atoms: _256  and  _259
REMARK  107  A    between atoms: _259  and  _260
REMARK  108  A    between atoms: _265  and  _266
REMARK  109  A    between atoms: _268  and  _270
REMARK  110  A    between atoms: _270  and  _271
REMARK  111  A    between atoms: _270  and  _273
REMARK  112  A    between atoms: _273  and  _274
REMARK  113  A    between atoms: _274  and  _275
REMARK  114  A    between atoms: _275  and  _276
REMARK  115  A    between atoms: _276  and  _277
REMARK  116  A    between atoms: _281  and  _283
REMARK  117  A    between atoms: _283  and  _284
REMARK  118  A    between atoms: _283  and  _286
REMARK  119  A    between atoms: _286  and  _287
REMARK  120  A    between atoms: _290  and  _292
REMARK  121  A    between atoms: _292  and  _293
REMARK  122  A    between atoms: _292  and  _295
REMARK  123  A    between atoms: _295  and  _296
REMARK  124  A    between atoms: _298  and  _300
REMARK  125  A    between atoms: _300  and  _301
REMARK  126  A    between atoms: _300  and  _303
REMARK  127  A    between atoms: _303  and  _304
REMARK  128  A    between atoms: _304  and  _419
REMARK  129  A    between atoms: _305  and  _307
REMARK  130  A    between atoms: _307  and  _308
REMARK  131  A    between atoms: _307  and  _310
REMARK  132  A    between atoms: _310  and  _311
REMARK  133  A    between atoms: _311  and  _312
REMARK  134  A    between atoms: _312  and  _313
REMARK  135  A    between atoms: _313  and  _314
REMARK  136  A    between atoms: _318  and  _320
REMARK  137  A    between atoms: _320  and  _321
REMARK  138  A    between atoms: _323  and  _325
REMARK  139  A    between atoms: _325  and  _326
REMARK  140  A    between atoms: _325  and  _328
REMARK  141  A    between atoms: _328  and  _329
REMARK  142  A    between atoms: _332  and  _334
REMARK  143  A    between atoms: _334  and  _335
REMARK  144  A    between atoms: _334  and  _337
REMARK  145  A    between atoms: _337  and  _338
REMARK  146  A    between atoms: _340  and  _342
REMARK  147  A    between atoms: _342  and  _343
REMARK  148  A    between atoms: _345  and  _347
REMARK  149  A    between atoms: _347  and  _348
REMARK  150  A    between atoms: _350  and  _352
REMARK  151  A    between atoms: _352  and  _353
REMARK  152  A    between atoms: _352  and  _355
REMARK  153  A    between atoms: _355  and  _356
REMARK  154  A    between atoms: _359  and  _361
REMARK  155  A    between atoms: _361  and  _362
REMARK  156  A    between atoms: _361  and  _364
REMARK  157  A    between atoms: _367  and  _369
REMARK  158  A    between atoms: _369  and  _370
REMARK  159  A    between atoms: _369  and  _372
REMARK  160  A    between atoms: _372  and  _373
REMARK  161  A    between atoms: _375  and  _377
REMARK  162  A    between atoms: _377  and  _378
REMARK  163  A    between atoms: _377  and  _380
REMARK  164  A    between atoms: _380  and  _381
REMARK  165  A    between atoms: _391  and  _393
REMARK  166  A    between atoms: _393  and  _394
REMARK  167  A    between atoms: _396  and  _398
REMARK  168  A    between atoms: _398  and  _399
REMARK  169  A    between atoms: _398  and  _401
REMARK  170  A    between atoms: _401  and  _402
REMARK  171  A    between atoms: _402  and  _403
REMARK  172  A    between atoms: _408  and  _410
REMARK  173  A    between atoms: _410  and  _411
REMARK  174  A    between atoms: _413  and  _415
REMARK  175  A    between atoms: _415  and  _416
REMARK  176  A    between atoms: _415  and  _418
REMARK  177  A    between atoms: _418  and  _419
REMARK  178  A    between atoms: _420  and  _422
REMARK  179  A    between atoms: _422  and  _423
REMARK  180  A    between atoms: _426  and  _428
REMARK  181  A    between atoms: _428  and  _429
REMARK  182  A    between atoms: _428  and  _431
REMARK  183  A    between atoms: _431  and  _432
REMARK  184  A    between atoms: _435  and  _437
REMARK  185  A    between atoms: _437  and  _438
REMARK  186  A    between atoms: _437  and  _440
REMARK  187  A    between atoms: _440  and  _441
REMARK  188  A    between atoms: _446  and  _448
REMARK  189  A    between atoms: _448  and  _449
REMARK  190  A    between atoms: _448  and  _451
REMARK  191  A    between atoms: _451  and  _452
REMARK  192  A    between atoms: _458  and  _460
REMARK  193  A    between atoms: _460  and  _461
REMARK  194  A    between atoms: _463  and  _465
REMARK  195  A    between atoms: _465  and  _466
REMARK  196  A    between atoms: _465  and  _468
REMARK  197  A    between atoms: _471  and  _473
REMARK  198  A    between atoms: _473  and  _474
REMARK  199  A    between atoms: _473  and  _476
REMARK  200  A    between atoms: _476  and  _477
REMARK  201  A    between atoms: _482  and  _483
REMARK                            x       y       z     vdW  Elec       q    Type
REMARK                         _______ _______ _______ _____ _____    ______ ____
ROOT
ATOM      1  CA  GLY A   4      -1.677  38.263  20.540  0.00  0.00    +0.176 C 
ENDROOT
BRANCH   1   3
ATOM      2  C   PRO A   3      -2.315  37.391  18.345  0.00  0.00    +0.241 C 
ATOM      3  N   GLY A   4      -1.380  37.677  19.237  0.00  0.00    -0.295 N 
ATOM      4  H   GLY A   4      -0.388  37.475  18.998  0.00  0.00    +0.150 HD
ATOM      5  O   PRO A   3      -3.510  37.579  18.543  0.00  0.00    -0.273 OA
BRANCH   2   9
ATOM      6  C   VAL A   2      -3.045  34.643  17.340  0.00  0.00    +0.244 C 
ATOM      7  O   VAL A   2      -2.635  34.603  18.490  0.00  0.00    -0.273 OA
ATOM      8  N   PRO A   3      -2.725  35.681  16.537  0.00  0.00    -0.272 N 
ATOM      9  CA  PRO A   3      -1.837  36.756  17.045  0.00  0.00    +0.152 C 
ATOM     10  CB  PRO A   3      -1.808  37.755  15.880  0.00  0.00    +0.031 C 
ATOM     11  CG  PRO A   3      -2.013  36.888  14.677  0.00  0.00    +0.024 C 
ATOM     12  CD  PRO A   3      -3.051  35.896  15.109  0.00  0.00    +0.094 C 
BRANCH   6  13
ATOM     13  CA  VAL A   2      -3.989  33.534  16.859  0.00  0.00    +0.149 C 
BRANCH  13  15
ATOM     14  C   TYR A   1      -2.984  31.516  15.784  0.00  0.00    +0.239 C 
ATOM     15  N   VAL A   2      -3.310  32.229  16.898  0.00  0.00    -0.297 N 
ATOM     16  H   VAL A   2      -3.066  31.829  17.827  0.00  0.00    +0.150 HD
ATOM     17  O   TYR A   1      -3.193  31.910  14.627  0.00  0.00    -0.274 OA
BRANCH  14  18
ATOM     18  CA  TYR A   1      -2.265  30.190  16.005  0.00  0.00    +0.149 C 
BRANCH  18  19
ATOM     19  N   TYR A   1      -2.938  29.139  15.260  0.00  0.00    -0.238 NA
ATOM     20  H   TYR A   1      -2.508  28.788  14.380  0.00  0.00    +0.142 HD
ENDBRANCH  18  19
BRANCH  18  21
ATOM     21  CB  TYR A   1      -0.769  30.285  15.639  0.00  0.00    +0.053 C 
BRANCH  21  22
ATOM     22  CG  TYR A   1      -0.145  31.550  16.191  0.00  0.00    -0.020 A 
ATOM     23  CD2 TYR A   1       0.289  31.617  17.515  0.00  0.00    -0.001 A 
ATOM     24  CE2 TYR A   1       0.742  32.819  18.069  0.00  0.00    +0.036 A 
ATOM     25  CZ  TYR A   1       0.804  33.954  17.283  0.00  0.00    +0.134 A 
ATOM     26  CE1 TYR A   1       0.345  33.918  15.975  0.00  0.00    +0.036 A 
ATOM     27  CD1 TYR A   1      -0.089  32.715  15.427  0.00  0.00    -0.001 A 
BRANCH  25  28
ATOM     28  OH  TYR A   1       1.293  35.123  17.810  0.00  0.00    -0.506 OA
ATOM     29  HH  TYR A   1       1.574  34.969  18.747  0.00  0.00    +0.292 HD
ENDBRANCH  25  28
ENDBRANCH  21  22
ENDBRANCH  18  21
ENDBRANCH  14  18
ENDBRANCH  13  15
BRANCH  13  30
ATOM     30  CB  VAL A   2      -5.341  33.529  17.672  0.00  0.00    +0.027 C 
ATOM     31  CG2 VAL A   2      -5.965  34.935  17.763  0.00  0.00    +0.002 C 
ATOM     32  CG1 VAL A   2      -6.343  32.525  17.093  0.00  0.00    +0.002 C 
ENDBRANCH  13  30
ENDBRANCH   6  13
ENDBRANCH   2   9
ENDBRANCH   1   3
BRANCH   1  33
ATOM     33  C   GLY A   4      -2.021  37.254  21.611  0.00  0.00    +0.243 C 
ATOM     34  O   GLY A   4      -2.306  37.635  22.753  0.00  0.00    -0.273 OA
ATOM     35  N   THR A   5      -2.010  35.939  21.242  0.00  0.00    -0.295 N 
ATOM     36  H   THR A   5      -1.792  35.714  20.250  0.00  0.00    +0.150 HD
BRANCH  35  37
ATOM     37  CA  THR A   5      -2.287  34.816  22.159  0.00  0.00    +0.176 C 
BRANCH  37  38
ATOM     38  C   THR A   5      -1.055  33.905  22.262  0.00  0.00    +0.243 C 
ATOM     39  N   THR A   6      -1.146  32.861  23.104  0.00  0.00    -0.295 N 
ATOM     40  H   THR A   6      -2.071  32.687  23.546  0.00  0.00    +0.150 HD
ATOM     41  O   THR A   5      -0.031  34.161  21.612  0.00  0.00    -0.273 OA
BRANCH  39  42
ATOM     42  CA  THR A   6      -0.046  31.940  23.456  0.00  0.00    +0.176 C 
BRANCH  42  43
ATOM     43  C   THR A   6      -0.027  30.573  22.783  0.00  0.00    +0.243 C 
ATOM     44  O   THR A   6       1.051  30.003  22.638  0.00  0.00    -0.273 OA
ATOM     45  N   ASN A   7      -1.190  29.995  22.498  0.00  0.00    -0.298 N 
ATOM     46  H   ASN A   7      -2.065  30.530  22.673  0.00  0.00    +0.150 HD
BRANCH  45  47
ATOM     47  CA  ASN A   7      -1.298  28.634  21.947  0.00  0.00    +0.146 C 
BRANCH  47  48
ATOM     48  C   ASN A   7      -0.772  28.511  20.511  0.00  0.00    +0.227 C 
ATOM     49  O   ASN A   7      -0.770  29.501  19.767  0.00  0.00    -0.286 OA
ENDBRANCH  47  48
BRANCH  47  50
ATOM     50  CB  ASN A   7      -2.739  28.138  22.048  0.00  0.00    +0.112 C 
BRANCH  50  51
ATOM     51  CG  ASN A   7      -2.941  26.646  22.180  0.00  0.00    +0.222 C 
ATOM     52  ND2 ASN A   7      -1.901  25.909  22.547  0.00  0.00    -0.329 N 
ATOM     53 HD21 ASN A   7      -0.978  26.358  22.712  0.00  0.00    +0.145 HD
ATOM     54 HD22 ASN A   7      -2.009  24.882  22.670  0.00  0.00    +0.145 HD
ATOM     55  OD1 ASN A   7      -4.058  26.134  21.976  0.00  0.00    -0.275 OA
ENDBRANCH  50  51
ENDBRANCH  47  50
ENDBRANCH  45  47
ENDBRANCH  42  43
BRANCH  42  56
ATOM     56  CB  THR A   6      -0.029  31.715  25.005  0.00  0.00    +0.137 C 
ATOM     57  CG2 THR A   6       0.343  32.972  25.773  0.00  0.00    +0.034 C 
BRANCH  56  58
ATOM     58  OG1 THR A   6      -1.314  31.249  25.434  0.00  0.00    -0.382 OA
ATOM     59  HG1 THR A   6      -2.002  31.924  25.205  0.00  0.00    +0.210 HD
ENDBRANCH  56  58
ENDBRANCH  42  56
ENDBRANCH  39  42
ENDBRANCH  37  38
BRANCH  37  60
ATOM     60  CB  THR A   5      -3.599  34.103  21.811  0.00  0.00    +0.137 C 
ATOM     61  CG2 THR A   5      -4.800  35.057  21.748  0.00  0.00    +0.034 C 
BRANCH  60  62
ATOM     62  OG1 THR A   5      -3.456  33.408  20.578  0.00  0.00    -0.382 OA
ATOM     63  HG1 THR A   5      -3.233  34.053  19.861  0.00  0.00    +0.210 HD
ENDBRANCH  60  62
ENDBRANCH  37  60
ENDBRANCH  35  37
ENDBRANCH   1  33
TORSDOF 23
REMARK  Name = ../refined-set-2016/4x8v/4x8v_pocket.pdb
REMARK  201 active torsions:
REMARK  status: ('A' for Active; 'I' for Inactive)
REMARK    1  A    between atoms: _1  and  _3
REMARK    2  A    between atoms: _3  and  _4
REMARK    3  A    between atoms: _3  and  _6
REMARK    4  A    between atoms: _9  and  _11
REMARK    5  A    between atoms: _11  and  _12
REMARK    6  A    between atoms: _11  and  _14
REMARK    7  A    between atoms: _17  and  _19
REMARK    8  A    between atoms: _19  and  _20
REMARK    9  A    between atoms: _19  and  _22
REMARK   10  A    between atoms: _22  and  _23
REMARK   11  A    between atoms: _23  and  _24
REMARK   12  A    between atoms: _29  and  _31
REMARK   13  A    between atoms: _31  and  _32
REMARK   14  A    between atoms: _31  and  _34
REMARK   15  A    between atoms: _34  and  _35
REMARK   16  A    between atoms: _38  and  _40
REMARK   17  A    between atoms: _40  and  _41
REMARK   18  A    between atoms: _40  and  _43
REMARK   19  A    between atoms: _43  and  _44
REMARK   20  A    between atoms: _44  and  _79
REMARK   21  A    between atoms: _45  and  _47
REMARK   22  A    between atoms: _47  and  _48
REMARK   23  A    between atoms: _50  and  _52
REMARK   24  A    between atoms: _52  and  _53
REMARK   25  A    between atoms: _56  and  _58
REMARK   26  A    between atoms: _58  and  _59
REMARK   27  A    between atoms: _62  and  _64
REMARK   28  A    between atoms: _64  and  _65
REMARK   29  A    between atoms: _64  and  _67
REMARK   30  A    between atoms: _67  and  _68
REMARK   31  A    between atoms: _73  and  _75
REMARK   32  A    between atoms: _75  and  _76
REMARK   33  A    between atoms: _75  and  _78
REMARK   34  A    between atoms: _78  and  _79
REMARK   35  A    between atoms: _80  and  _82
REMARK   36  A    between atoms: _82  and  _83
REMARK   37  A    between atoms: _82  and  _85
REMARK   38  A    between atoms: _85  and  _86
REMARK   39  A    between atoms: _92  and  _94
REMARK   40  A    between atoms: _94  and  _95
REMARK   41  A    between atoms: _94  and  _97
REMARK   42  A    between atoms: _97  and  _98
REMARK   43  A    between atoms: _101  and  _103
REMARK   44  A    between atoms: _103  and  _104
REMARK   45  A    between atoms: _103  and  _106
REMARK   46  A    between atoms: _106  and  _107
REMARK   47  A    between atoms: _107  and  _108
REMARK   48  A    between atoms: _108  and  _109
REMARK   49  A    between atoms: _109  and  _110
REMARK   50  A    between atoms: _114  and  _116
REMARK   51  A    between atoms: _116  and  _117
REMARK   52  A    between atoms: _116  and  _119
REMARK   53  A    between atoms: _119  and  _120
REMARK   54  A    between atoms: _123  and  _125
REMARK   55  A    between atoms: _125  and  _126
REMARK   56  A    between atoms: _125  and  _128
REMARK   57  A    between atoms: _128  and  _129
REMARK   58  A    between atoms: _134  and  _135
REMARK   59  A    between atoms: _137  and  _139
REMARK   60  A    between atoms: _139  and  _140
REMARK   61  A    between atoms: _139  and  _142
REMARK   62  A    between atoms: _146  and  _147
REMARK   63  A    between atoms: _152  and  _154
REMARK   64  A    between atoms: _154  and  _155
REMARK   65  A    between atoms: _157  and  _159
REMARK   66  A    between atoms: _159  and  _160
REMARK   67  A    between atoms: _159  and  _162
REMARK   68  A    between atoms: _162  and  _163
REMARK   69  A    between atoms: _166  and  _168
REMARK   70  A    between atoms: _168  and  _169
REMARK   71  A    between atoms: _168  and  _171
REMARK   72  A    between atoms: _171  and  _172
REMARK   73  A    between atoms: _175  and  _177
REMARK   74  A    between atoms: _177  and  _178
REMARK   75  A    between atoms: _177  and  _180
REMARK   76  A    between atoms: _180  and  _181
REMARK   77  A    between atoms: _186  and  _188
REMARK   78  A    between atoms: _188  and  _189
REMARK   79  A    between atoms: _188  and  _191
REMARK   80  A    between atoms: _191  and  _192
REMARK   81  A    between atoms: _195  and  _197
REMARK   82  A    between atoms: _197  and  _198
REMARK   83  A    between atoms: _197  and  _200
REMARK   84  A    between atoms: _203  and  _205
REMARK   85  A    between atoms: _205  and  _206
REMARK   86  A    between atoms: _205  and  _208
REMARK   87  A    between atoms: _208  and  _209
REMARK   88  A    between atoms: _209  and  _210
REMARK   89  A    between atoms: _215  and  _217
REMARK   90  A    between atoms: _217  and  _218
REMARK   91  A    between atoms: _217  and  _220
REMARK   92  A    between atoms: _220  and  _221
REMARK   93  A    between atoms: _224  and  _226
REMARK   94  A    between atoms: _226  and  _227
REMARK   95  A    between atoms: _226  and  _229
REMARK   96  A    between atoms: _229  and  _230
REMARK   97  A    between atoms: _233  and  _235
REMARK   98  A    between atoms: _235  and  _236
REMARK   99  A    between atoms: _235  and  _238
REMARK  100  A    between atoms: _238  and  _239
REMARK  101  A    between atoms: _242  and  _243
REMARK  102  A    between atoms: _248  and  _250
REMARK  103  A    between atoms: _250  and  _251
REMARK  104  A    between atoms: _254  and  _256
REMARK  105  A    between atoms: _256  and  _257
REMARK  106  A    between atoms: _256  and  _259
REMARK  107  A    between atoms: _259  and  _260
REMARK  108  A    between atoms: _265  and  _266
REMARK  109  A    between atoms: _268  and  _270
REMARK  110  A    between atoms: _270  and  _271
REMARK  111  A    between atoms: _270  and  _273
REMARK  112  A    between atoms: _273  and  _274
REMARK  113  A    between atoms: _274  and  _275
REMARK  114  A    between atoms: _275  and  _276
REMARK  115  A    between atoms: _276  and  _277
REMARK  116  A    between atoms: _281  and  _283
REMARK  117  A    between atoms: _283  and  _284
REMARK  118  A    between atoms: _283  and  _286
REMARK  119  A    between atoms: _286  and  _287
REMARK  120  A    between atoms: _290  and  _292
REMARK  121  A    between atoms: _292  and  _293
REMARK  122  A    between atoms: _292  and  _295
REMARK  123  A    between atoms: _295  and  _296
REMARK  124  A    between atoms: _298  and  _300
REMARK  125  A    between atoms: _300  and  _301
REMARK  126  A    between atoms: _300  and  _303
REMARK  127  A    between atoms: _303  and  _304
REMARK  128  A    between atoms: _304  and  _419
REMARK  129  A    between atoms: _305  and  _307
REMARK  130  A    between atoms: _307  and  _308
REMARK  131  A    between atoms: _307  and  _310
REMARK  132  A    between atoms: _310  and  _311
REMARK  133  A    between atoms: _311  and  _312
REMARK  134  A    between atoms: _312  and  _313
REMARK  135  A    between atoms: _313  and  _314
REMARK  136  A    between atoms: _318  and  _320
REMARK  137  A    between atoms: _320  and  _321
REMARK  138  A    between atoms: _323  and  _325
REMARK  139  A    between atoms: _325  and  _326
REMARK  140  A    between atoms: _325  and  _328
REMARK  141  A    between atoms: _328  and  _329
REMARK  142  A    between atoms: _332  and  _334
REMARK  143  A    between atoms: _334  and  _335
REMARK  144  A    between atoms: _334  and  _337
REMARK  145  A    between atoms: _337  and  _338
REMARK  146  A    between atoms: _340  and  _342
REMARK  147  A    between atoms: _342  and  _343
REMARK  148  A    between atoms: _345  and  _347
REMARK  149  A    between atoms: _347  and  _348
REMARK  150  A    between atoms: _350  and  _352
REMARK  151  A    between atoms: _352  and  _353
REMARK  152  A    between atoms: _352  and  _355
REMARK  153  A    between atoms: _355  and  _356
REMARK  154  A    between atoms: _359  and  _361
REMARK  155  A    between atoms: _361  and  _362
REMARK  156  A    between atoms: _361  and  _364
REMARK  157  A    between atoms: _367  and  _369
REMARK  158  A    between atoms: _369  and  _370
REMARK  159  A    between atoms: _369  and  _372
REMARK  160  A    between atoms: _372  and  _373
REMARK  161  A    between atoms: _375  and  _377
REMARK  162  A    between atoms: _377  and  _378
REMARK  163  A    between atoms: _377  and  _380
REMARK  164  A    between atoms: _380  and  _381
REMARK  165  A    between atoms: _391  and  _393
REMARK  166  A    between atoms: _393  and  _394
REMARK  167  A    between atoms: _396  and  _398
REMARK  168  A    between atoms: _398  and  _399
REMARK  169  A    between atoms: _398  and  _401
REMARK  170  A    between atoms: _401  and  _402
REMARK  171  A    between atoms: _402  and  _403
REMARK  172  A    between atoms: _408  and  _410
REMARK  173  A    between atoms: _410  and  _411
REMARK  174  A    between atoms: _413  and  _415
REMARK  175  A    between atoms: _415  and  _416
REMARK  176  A    between atoms: _415  and  _418
REMARK  177  A    between atoms: _418  and  _419
REMARK  178  A    between atoms: _420  and  _422
REMARK  179  A    between atoms: _422  and  _423
REMARK  180  A    between atoms: _426  and  _428
REMARK  181  A    between atoms: _428  and  _429
REMARK  182  A    between atoms: _428  and  _431
REMARK  183  A    between atoms: _431  and  _432
REMARK  184  A    between atoms: _435  and  _437
REMARK  185  A    between atoms: _437  and  _438
REMARK  186  A    between atoms: _437  and  _440
REMARK  187  A    between atoms: _440  and  _441
REMARK  188  A    between atoms: _446  and  _448
REMARK  189  A    between atoms: _448  and  _449
REMARK  190  A    between atoms: _448  and  _451
REMARK  191  A    between atoms: _451  and  _452
REMARK  192  A    between atoms: _458  and  _460
REMARK  193  A    between atoms: _460  and  _461
REMARK  194  A    between atoms: _463  and  _465
REMARK  195  A    between atoms: _465  and  _466
REMARK  196  A    between atoms: _465  and  _468
REMARK  197  A    between atoms: _471  and  _473
REMARK  198  A    between atoms: _473  and  _474
REMARK  199  A    between atoms: _473  and  _476
REMARK  200  A    between atoms: _476  and  _477
REMARK  201  A    between atoms: _482  and  _483
REMARK                            x       y       z     vdW  Elec       q    Type
REMARK                         _______ _______ _______ _____ _____    ______ ____
ROOT
ATOM      1  CA  ASP A   1       3.455  29.130  19.089  0.00  0.00    +0.144 C 
ENDROOT
BRANCH   1   2
ATOM      2  N   ASP A   1       2.350  28.192  19.296  0.00  0.00    -0.239 NA
ATOM      3  H   ASP A   1       2.278  27.724  20.222  0.00  0.00    +0.142 HD
ENDBRANCH   1   2
BRANCH   1   4
ATOM      4  C   ASP A   1       4.657  28.544  18.370  0.00  0.00    +0.225 C 
ATOM      5  O   ASP A   1       5.705  28.311  18.979  0.00  0.00    -0.287 OA
ENDBRANCH   1   4
BRANCH   1   6
ATOM      6  CB  ASP A   1       3.872  29.783  20.406  0.00  0.00    +0.139 C 
BRANCH   6   7
ATOM      7  CG  ASP A   1       4.617  31.082  20.218  0.00  0.00    +0.367 C 
ATOM      8  OD2 ASP A   1       5.204  31.565  21.206  0.00  0.00    -0.246 OA
ATOM      9  OD1 ASP A   1       4.598  31.635  19.062  0.00  0.00    -0.246 OA
ENDBRANCH   6   7
ENDBRANCH   1   6
TORSDOF 4
REMARK  Name = ../refined-set-2016/4x8v/4x8v_pocket.pdb
REMARK  201 active torsions:
REMARK  status: ('A' for Active; 'I' for Inactive)
REMARK    1  A    between atoms: _1  and  _3
REMARK    2  A    between atoms: _3  and  _4
REMARK    3  A    between atoms: _3  and  _6
REMARK    4  A    between atoms: _9  and  _11
REMARK    5  A    between atoms: _11  and  _12
REMARK    6  A    between atoms: _11  and  _14
REMARK    7  A    between atoms: _17  and  _19
REMARK    8  A    between atoms: _19  and  _20
REMARK    9  A    between atoms: _19  and  _22
REMARK   10  A    between atoms: _22  and  _23
REMARK   11  A    between atoms: _23  and  _24
REMARK   12  A    between atoms: _29  and  _31
REMARK   13  A    between atoms: _31  and  _32
REMARK   14  A    between atoms: _31  and  _34
REMARK   15  A    between atoms: _34  and  _35
REMARK   16  A    between atoms: _38  and  _40
REMARK   17  A    between atoms: _40  and  _41
REMARK   18  A    between atoms: _40  and  _43
REMARK   19  A    between atoms: _43  and  _44
REMARK   20  A    between atoms: _44  and  _79
REMARK   21  A    between atoms: _45  and  _47
REMARK   22  A    between atoms: _47  and  _48
REMARK   23  A    between atoms: _50  and  _52
REMARK   24  A    between atoms: _52  and  _53
REMARK   25  A    between atoms: _56  and  _58
REMARK   26  A    between atoms: _58  and  _59
REMARK   27  A    between atoms: _62  and  _64
REMARK   28  A    between atoms: _64  and  _65
REMARK   29  A    between atoms: _64  and  _67
REMARK   30  A    between atoms: _67  and  _68
REMARK   31  A    between atoms: _73  and  _75
REMARK   32  A    between atoms: _75  and  _76
REMARK   33  A    between atoms: _75  and  _78
REMARK   34  A    between atoms: _78  and  _79
REMARK   35  A    between atoms: _80  and  _82
REMARK   36  A    between atoms: _82  and  _83
REMARK   37  A    between atoms: _82  and  _85
REMARK   38  A    between atoms: _85  and  _86
REMARK   39  A    between atoms: _92  and  _94
REMARK   40  A    between atoms: _94  and  _95
REMARK   41  A    between atoms: _94  and  _97
REMARK   42  A    between atoms: _97  and  _98
REMARK   43  A    between atoms: _101  and  _103
REMARK   44  A    between atoms: _103  and  _104
REMARK   45  A    between atoms: _103  and  _106
REMARK   46  A    between atoms: _106  and  _107
REMARK   47  A    between atoms: _107  and  _108
REMARK   48  A    between atoms: _108  and  _109
REMARK   49  A    between atoms: _109  and  _110
REMARK   50  A    between atoms: _114  and  _116
REMARK   51  A    between atoms: _116  and  _117
REMARK   52  A    between atoms: _116  and  _119
REMARK   53  A    between atoms: _119  and  _120
REMARK   54  A    between atoms: _123  and  _125
REMARK   55  A    between atoms: _125  and  _126
REMARK   56  A    between atoms: _125  and  _128
REMARK   57  A    between atoms: _128  and  _129
REMARK   58  A    between atoms: _134  and  _135
REMARK   59  A    between atoms: _137  and  _139
REMARK   60  A    between atoms: _139  and  _140
REMARK   61  A    between atoms: _139  and  _142
REMARK   62  A    between atoms: _146  and  _147
REMARK   63  A    between atoms: _152  and  _154
REMARK   64  A    between atoms: _154  and  _155
REMARK   65  A    between atoms: _157  and  _159
REMARK   66  A    between atoms: _159  and  _160
REMARK   67  A    between atoms: _159  and  _162
REMARK   68  A    between atoms: _162  and  _163
REMARK   69  A    between atoms: _166  and  _168
REMARK   70  A    between atoms: _168  and  _169
REMARK   71  A    between atoms: _168  and  _171
REMARK   72  A    between atoms: _171  and  _172
REMARK   73  A    between atoms: _175  and  _177
REMARK   74  A    between atoms: _177  and  _178
REMARK   75  A    between atoms: _177  and  _180
REMARK   76  A    between atoms: _180  and  _181
REMARK   77  A    between atoms: _186  and  _188
REMARK   78  A    between atoms: _188  and  _189
REMARK   79  A    between atoms: _188  and  _191
REMARK   80  A    between atoms: _191  and  _192
REMARK   81  A    between atoms: _195  and  _197
REMARK   82  A    between atoms: _197  and  _198
REMARK   83  A    between atoms: _197  and  _200
REMARK   84  A    between atoms: _203  and  _205
REMARK   85  A    between atoms: _205  and  _206
REMARK   86  A    between atoms: _205  and  _208
REMARK   87  A    between atoms: _208  and  _209
REMARK   88  A    between atoms: _209  and  _210
REMARK   89  A    between atoms: _215  and  _217
REMARK   90  A    between atoms: _217  and  _218
REMARK   91  A    between atoms: _217  and  _220
REMARK   92  A    between atoms: _220  and  _221
REMARK   93  A    between atoms: _224  and  _226
REMARK   94  A    between atoms: _226  and  _227
REMARK   95  A    between atoms: _226  and  _229
REMARK   96  A    between atoms: _229  and  _230
REMARK   97  A    between atoms: _233  and  _235
REMARK   98  A    between atoms: _235  and  _236
REMARK   99  A    between atoms: _235  and  _238
REMARK  100  A    between atoms: _238  and  _239
REMARK  101  A    between atoms: _242  and  _243
REMARK  102  A    between atoms: _248  and  _250
REMARK  103  A    between atoms: _250  and  _251
REMARK  104  A    between atoms: _254  and  _256
REMARK  105  A    between atoms: _256  and  _257
REMARK  106  A    between atoms: _256  and  _259
REMARK  107  A    between atoms: _259  and  _260
REMARK  108  A    between atoms: _265  and  _266
REMARK  109  A    between atoms: _268  and  _270
REMARK  110  A    between atoms: _270  and  _271
REMARK  111  A    between atoms: _270  and  _273
REMARK  112  A    between atoms: _273  and  _274
REMARK  113  A    between atoms: _274  and  _275
REMARK  114  A    between atoms: _275  and  _276
REMARK  115  A    between atoms: _276  and  _277
REMARK  116  A    between atoms: _281  and  _283
REMARK  117  A    between atoms: _283  and  _284
REMARK  118  A    between atoms: _283  and  _286
REMARK  119  A    between atoms: _286  and  _287
REMARK  120  A    between atoms: _290  and  _292
REMARK  121  A    between atoms: _292  and  _293
REMARK  122  A    between atoms: _292  and  _295
REMARK  123  A    between atoms: _295  and  _296
REMARK  124  A    between atoms: _298  and  _300
REMARK  125  A    between atoms: _300  and  _301
REMARK  126  A    between atoms: _300  and  _303
REMARK  127  A    between atoms: _303  and  _304
REMARK  128  A    between atoms: _304  and  _419
REMARK  129  A    between atoms: _305  and  _307
REMARK  130  A    between atoms: _307  and  _308
REMARK  131  A    between atoms: _307  and  _310
REMARK  132  A    between atoms: _310  and  _311
REMARK  133  A    between atoms: _311  and  _312
REMARK  134  A    between atoms: _312  and  _313
REMARK  135  A    between atoms: _313  and  _314
REMARK  136  A    between atoms: _318  and  _320
REMARK  137  A    between atoms: _320  and  _321
REMARK  138  A    between atoms: _323  and  _325
REMARK  139  A    between atoms: _325  and  _326
REMARK  140  A    between atoms: _325  and  _328
REMARK  141  A    between atoms: _328  and  _329
REMARK  142  A    between atoms: _332  and  _334
REMARK  143  A    between atoms: _334  and  _335
REMARK  144  A    between atoms: _334  and  _337
REMARK  145  A    between atoms: _337  and  _338
REMARK  146  A    between atoms: _340  and  _342
REMARK  147  A    between atoms: _342  and  _343
REMARK  148  A    between atoms: _345  and  _347
REMARK  149  A    between atoms: _347  and  _348
REMARK  150  A    between atoms: _350  and  _352
REMARK  151  A    between atoms: _352  and  _353
REMARK  152  A    between atoms: _352  and  _355
REMARK  153  A    between atoms: _355  and  _356
REMARK  154  A    between atoms: _359  and  _361
REMARK  155  A    between atoms: _361  and  _362
REMARK  156  A    between atoms: _361  and  _364
REMARK  157  A    between atoms: _367  and  _369
REMARK  158  A    between atoms: _369  and  _370
REMARK  159  A    between atoms: _369  and  _372
REMARK  160  A    between atoms: _372  and  _373
REMARK  161  A    between atoms: _375  and  _377
REMARK  162  A    between atoms: _377  and  _378
REMARK  163  A    between atoms: _377  and  _380
REMARK  164  A    between atoms: _380  and  _381
REMARK  165  A    between atoms: _391  and  _393
REMARK  166  A    between atoms: _393  and  _394
REMARK  167  A    between atoms: _396  and  _398
REMARK  168  A    between atoms: _398  and  _399
REMARK  169  A    between atoms: _398  and  _401
REMARK  170  A    between atoms: _401  and  _402
REMARK  171  A    between atoms: _402  and  _403
REMARK  172  A    between atoms: _408  and  _410
REMARK  173  A    between atoms: _410  and  _411
REMARK  174  A    between atoms: _413  and  _415
REMARK  175  A    between atoms: _415  and  _416
REMARK  176  A    between atoms: _415  and  _418
REMARK  177  A    between atoms: _418  and  _419
REMARK  178  A    between atoms: _420  and  _422
REMARK  179  A    between atoms: _422  and  _423
REMARK  180  A    between atoms: _426  and  _428
REMARK  181  A    between atoms: _428  and  _429
REMARK  182  A    between atoms: _428  and  _431
REMARK  183  A    between atoms: _431  and  _432
REMARK  184  A    between atoms: _435  and  _437
REMARK  185  A    between atoms: _437  and  _438
REMARK  186  A    between atoms: _437  and  _440
REMARK  187  A    between atoms: _440  and  _441
REMARK  188  A    between atoms: _446  and  _448
REMARK  189  A    between atoms: _448  and  _449
REMARK  190  A    between atoms: _448  and  _451
REMARK  191  A    between atoms: _451  and  _452
REMARK  192  A    between atoms: _458  and  _460
REMARK  193  A    between atoms: _460  and  _461
REMARK  194  A    between atoms: _463  and  _465
REMARK  195  A    between atoms: _465  and  _466
REMARK  196  A    between atoms: _465  and  _468
REMARK  197  A    between atoms: _471  and  _473
REMARK  198  A    between atoms: _473  and  _474
REMARK  199  A    between atoms: _473  and  _476
REMARK  200  A    between atoms: _476  and  _477
REMARK  201  A    between atoms: _482  and  _483
REMARK                            x       y       z     vdW  Elec       q    Type
REMARK                         _______ _______ _______ _____ _____    ______ ____
ROOT
ATOM      1  CA  VAL A   1      17.853  26.904  26.540  0.00  0.00    +0.133 C 
ENDROOT
BRANCH   1   2
ATOM      2  CB  VAL A   1      16.617  27.259  27.389  0.00  0.00    +0.023 C 
ATOM      3  CG2 VAL A   1      15.668  26.087  27.437  0.00  0.00    +0.002 C 
ATOM      4  CG1 VAL A   1      15.878  28.443  26.807  0.00  0.00    +0.002 C 
ENDBRANCH   1   2
BRANCH   1   5
ATOM      5  N   VAL A   1      18.625  25.804  27.097  0.00  0.00    -0.239 NA
ATOM      6  H   VAL A   1      19.159  25.979  27.972  0.00  0.00    +0.142 HD
ENDBRANCH   1   5
BRANCH   1   7
ATOM      7  C   VAL A   1      18.838  28.022  26.294  0.00  0.00    +0.224 C 
ATOM      8  O   VAL A   1      19.723  28.243  27.107  0.00  0.00    -0.287 OA
ENDBRANCH   1   7
TORSDOF 3
REMARK  Name = ../refined-set-2016/4x8v/4x8v_pocket.pdb
REMARK  201 active torsions:
REMARK  status: ('A' for Active; 'I' for Inactive)
REMARK    1  A    between atoms: _1  and  _3
REMARK    2  A    between atoms: _3  and  _4
REMARK    3  A    between atoms: _3  and  _6
REMARK    4  A    between atoms: _9  and  _11
REMARK    5  A    between atoms: _11  and  _12
REMARK    6  A    between atoms: _11  and  _14
REMARK    7  A    between atoms: _17  and  _19
REMARK    8  A    between atoms: _19  and  _20
REMARK    9  A    between atoms: _19  and  _22
REMARK   10  A    between atoms: _22  and  _23
REMARK   11  A    between atoms: _23  and  _24
REMARK   12  A    between atoms: _29  and  _31
REMARK   13  A    between atoms: _31  and  _32
REMARK   14  A    between atoms: _31  and  _34
REMARK   15  A    between atoms: _34  and  _35
REMARK   16  A    between atoms: _38  and  _40
REMARK   17  A    between atoms: _40  and  _41
REMARK   18  A    between atoms: _40  and  _43
REMARK   19  A    between atoms: _43  and  _44
REMARK   20  A    between atoms: _44  and  _79
REMARK   21  A    between atoms: _45  and  _47
REMARK   22  A    between atoms: _47  and  _48
REMARK   23  A    between atoms: _50  and  _52
REMARK   24  A    between atoms: _52  and  _53
REMARK   25  A    between atoms: _56  and  _58
REMARK   26  A    between atoms: _58  and  _59
REMARK   27  A    between atoms: _62  and  _64
REMARK   28  A    between atoms: _64  and  _65
REMARK   29  A    between atoms: _64  and  _67
REMARK   30  A    between atoms: _67  and  _68
REMARK   31  A    between atoms: _73  and  _75
REMARK   32  A    between atoms: _75  and  _76
REMARK   33  A    between atoms: _75  and  _78
REMARK   34  A    between atoms: _78  and  _79
REMARK   35  A    between atoms: _80  and  _82
REMARK   36  A    between atoms: _82  and  _83
REMARK   37  A    between atoms: _82  and  _85
REMARK   38  A    between atoms: _85  and  _86
REMARK   39  A    between atoms: _92  and  _94
REMARK   40  A    between atoms: _94  and  _95
REMARK   41  A    between atoms: _94  and  _97
REMARK   42  A    between atoms: _97  and  _98
REMARK   43  A    between atoms: _101  and  _103
REMARK   44  A    between atoms: _103  and  _104
REMARK   45  A    between atoms: _103  and  _106
REMARK   46  A    between atoms: _106  and  _107
REMARK   47  A    between atoms: _107  and  _108
REMARK   48  A    between atoms: _108  and  _109
REMARK   49  A    between atoms: _109  and  _110
REMARK   50  A    between atoms: _114  and  _116
REMARK   51  A    between atoms: _116  and  _117
REMARK   52  A    between atoms: _116  and  _119
REMARK   53  A    between atoms: _119  and  _120
REMARK   54  A    between atoms: _123  and  _125
REMARK   55  A    between atoms: _125  and  _126
REMARK   56  A    between atoms: _125  and  _128
REMARK   57  A    between atoms: _128  and  _129
REMARK   58  A    between atoms: _134  and  _135
REMARK   59  A    between atoms: _137  and  _139
REMARK   60  A    between atoms: _139  and  _140
REMARK   61  A    between atoms: _139  and  _142
REMARK   62  A    between atoms: _146  and  _147
REMARK   63  A    between atoms: _152  and  _154
REMARK   64  A    between atoms: _154  and  _155
REMARK   65  A    between atoms: _157  and  _159
REMARK   66  A    between atoms: _159  and  _160
REMARK   67  A    between atoms: _159  and  _162
REMARK   68  A    between atoms: _162  and  _163
REMARK   69  A    between atoms: _166  and  _168
REMARK   70  A    between atoms: _168  and  _169
REMARK   71  A    between atoms: _168  and  _171
REMARK   72  A    between atoms: _171  and  _172
REMARK   73  A    between atoms: _175  and  _177
REMARK   74  A    between atoms: _177  and  _178
REMARK   75  A    between atoms: _177  and  _180
REMARK   76  A    between atoms: _180  and  _181
REMARK   77  A    between atoms: _186  and  _188
REMARK   78  A    between atoms: _188  and  _189
REMARK   79  A    between atoms: _188  and  _191
REMARK   80  A    between atoms: _191  and  _192
REMARK   81  A    between atoms: _195  and  _197
REMARK   82  A    between atoms: _197  and  _198
REMARK   83  A    between atoms: _197  and  _200
REMARK   84  A    between atoms: _203  and  _205
REMARK   85  A    between atoms: _205  and  _206
REMARK   86  A    between atoms: _205  and  _208
REMARK   87  A    between atoms: _208  and  _209
REMARK   88  A    between atoms: _209  and  _210
REMARK   89  A    between atoms: _215  and  _217
REMARK   90  A    between atoms: _217  and  _218
REMARK   91  A    between atoms: _217  and  _220
REMARK   92  A    between atoms: _220  and  _221
REMARK   93  A    between atoms: _224  and  _226
REMARK   94  A    between atoms: _226  and  _227
REMARK   95  A    between atoms: _226  and  _229
REMARK   96  A    between atoms: _229  and  _230
REMARK   97  A    between atoms: _233  and  _235
REMARK   98  A    between atoms: _235  and  _236
REMARK   99  A    between atoms: _235  and  _238
REMARK  100  A    between atoms: _238  and  _239
REMARK  101  A    between atoms: _242  and  _243
REMARK  102  A    between atoms: _248  and  _250
REMARK  103  A    between atoms: _250  and  _251
REMARK  104  A    between atoms: _254  and  _256
REMARK  105  A    between atoms: _256  and  _257
REMARK  106  A    between atoms: _256  and  _259
REMARK  107  A    between atoms: _259  and  _260
REMARK  108  A    between atoms: _265  and  _266
REMARK  109  A    between atoms: _268  and  _270
REMARK  110  A    between atoms: _270  and  _271
REMARK  111  A    between atoms: _270  and  _273
REMARK  112  A    between atoms: _273  and  _274
REMARK  113  A    between atoms: _274  and  _275
REMARK  114  A    between atoms: _275  and  _276
REMARK  115  A    between atoms: _276  and  _277
REMARK  116  A    between atoms: _281  and  _283
REMARK  117  A    between atoms: _283  and  _284
REMARK  118  A    between atoms: _283  and  _286
REMARK  119  A    between atoms: _286  and  _287
REMARK  120  A    between atoms: _290  and  _292
REMARK  121  A    between atoms: _292  and  _293
REMARK  122  A    between atoms: _292  and  _295
REMARK  123  A    between atoms: _295  and  _296
REMARK  124  A    between atoms: _298  and  _300
REMARK  125  A    between atoms: _300  and  _301
REMARK  126  A    between atoms: _300  and  _303
REMARK  127  A    between atoms: _303  and  _304
REMARK  128  A    between atoms: _304  and  _419
REMARK  129  A    between atoms: _305  and  _307
REMARK  130  A    between atoms: _307  and  _308
REMARK  131  A    between atoms: _307  and  _310
REMARK  132  A    between atoms: _310  and  _311
REMARK  133  A    between atoms: _311  and  _312
REMARK  134  A    between atoms: _312  and  _313
REMARK  135  A    between atoms: _313  and  _314
REMARK  136  A    between atoms: _318  and  _320
REMARK  137  A    between atoms: _320  and  _321
REMARK  138  A    between atoms: _323  and  _325
REMARK  139  A    between atoms: _325  and  _326
REMARK  140  A    between atoms: _325  and  _328
REMARK  141  A    between atoms: _328  and  _329
REMARK  142  A    between atoms: _332  and  _334
REMARK  143  A    between atoms: _334  and  _335
REMARK  144  A    between atoms: _334  and  _337
REMARK  145  A    between atoms: _337  and  _338
REMARK  146  A    between atoms: _340  and  _342
REMARK  147  A    between atoms: _342  and  _343
REMARK  148  A    between atoms: _345  and  _347
REMARK  149  A    between atoms: _347  and  _348
REMARK  150  A    between atoms: _350  and  _352
REMARK  151  A    between atoms: _352  and  _353
REMARK  152  A    between atoms: _352  and  _355
REMARK  153  A    between atoms: _355  and  _356
REMARK  154  A    between atoms: _359  and  _361
REMARK  155  A    between atoms: _361  and  _362
REMARK  156  A    between atoms: _361  and  _364
REMARK  157  A    between atoms: _367  and  _369
REMARK  158  A    between atoms: _369  and  _370
REMARK  159  A    between atoms: _369  and  _372
REMARK  160  A    between atoms: _372  and  _373
REMARK  161  A    between atoms: _375  and  _377
REMARK  162  A    between atoms: _377  and  _378
REMARK  163  A    between atoms: _377  and  _380
REMARK  164  A    between atoms: _380  and  _381
REMARK  165  A    between atoms: _391  and  _393
REMARK  166  A    between atoms: _393  and  _394
REMARK  167  A    between atoms: _396  and  _398
REMARK  168  A    between atoms: _398  and  _399
REMARK  169  A    between atoms: _398  and  _401
REMARK  170  A    between atoms: _401  and  _402
REMARK  171  A    between atoms: _402  and  _403
REMARK  172  A    between atoms: _408  and  _410
REMARK  173  A    between atoms: _410  and  _411
REMARK  174  A    between atoms: _413  and  _415
REMARK  175  A    between atoms: _415  and  _416
REMARK  176  A    between atoms: _415  and  _418
REMARK  177  A    between atoms: _418  and  _419
REMARK  178  A    between atoms: _420  and  _422
REMARK  179  A    between atoms: _422  and  _423
REMARK  180  A    between atoms: _426  and  _428
REMARK  181  A    between atoms: _428  and  _429
REMARK  182  A    between atoms: _428  and  _431
REMARK  183  A    between atoms: _431  and  _432
REMARK  184  A    between atoms: _435  and  _437
REMARK  185  A    between atoms: _437  and  _438
REMARK  186  A    between atoms: _437  and  _440
REMARK  187  A    between atoms: _440  and  _441
REMARK  188  A    between atoms: _446  and  _448
REMARK  189  A    between atoms: _448  and  _449
REMARK  190  A    between atoms: _448  and  _451
REMARK  191  A    between atoms: _451  and  _452
REMARK  192  A    between atoms: _458  and  _460
REMARK  193  A    between atoms: _460  and  _461
REMARK  194  A    between atoms: _463  and  _465
REMARK  195  A    between atoms: _465  and  _466
REMARK  196  A    between atoms: _465  and  _468
REMARK  197  A    between atoms: _471  and  _473
REMARK  198  A    between atoms: _473  and  _474
REMARK  199  A    between atoms: _473  and  _476
REMARK  200  A    between atoms: _476  and  _477
REMARK  201  A    between atoms: _482  and  _483
REMARK                            x       y       z     vdW  Elec       q    Type
REMARK                         _______ _______ _______ _____ _____    ______ ____
ROOT
ATOM      1  CB  GLN A   1      16.887  41.062  28.952  0.00  0.00    +0.035 C 
ENDROOT
BRANCH   1   2
ATOM      2  CA  GLN A   1      17.972  40.072  28.440  0.00  0.00    +0.134 C 
BRANCH   2   3
ATOM      3  N   GLN A   1      17.586  39.263  27.272  0.00  0.00    -0.239 NA
ATOM      4  H   GLN A   1      16.579  39.199  27.021  0.00  0.00    +0.142 HD
ENDBRANCH   2   3
BRANCH   2   5
ATOM      5  C   GLN A   1      18.541  39.219  29.545  0.00  0.00    +0.224 C 
ATOM      6  O   GLN A   1      18.209  38.035  29.682  0.00  0.00    -0.287 OA
ENDBRANCH   2   5
ENDBRANCH   1   2
BRANCH   1   7
ATOM      7  CG  GLN A   1      15.413  40.761  28.711  0.00  0.00    +0.087 C 
BRANCH   7   8
ATOM      8  CD  GLN A   1      14.972  40.660  27.267  0.00  0.00    +0.219 C 
ATOM      9  OE1 GLN A   1      14.731  39.562  26.755  0.00  0.00    -0.275 OA
ATOM     10  NE2 GLN A   1      14.861  41.788  26.579  0.00  0.00    -0.329 N 
ATOM     11 HE21 GLN A   1      15.070  42.699  27.036  0.00  0.00    +0.145 HD
ATOM     12 HE22 GLN A   1      14.565  41.762  25.582  0.00  0.00    +0.145 HD
ENDBRANCH   7   8
ENDBRANCH   1   7
TORSDOF 5
REMARK  Name = ../refined-set-2016/4x8v/4x8v_pocket.pdb
REMARK  201 active torsions:
REMARK  status: ('A' for Active; 'I' for Inactive)
REMARK    1  A    between atoms: _1  and  _3
REMARK    2  A    between atoms: _3  and  _4
REMARK    3  A    between atoms: _3  and  _6
REMARK    4  A    between atoms: _9  and  _11
REMARK    5  A    between atoms: _11  and  _12
REMARK    6  A    between atoms: _11  and  _14
REMARK    7  A    between atoms: _17  and  _19
REMARK    8  A    between atoms: _19  and  _20
REMARK    9  A    between atoms: _19  and  _22
REMARK   10  A    between atoms: _22  and  _23
REMARK   11  A    between atoms: _23  and  _24
REMARK   12  A    between atoms: _29  and  _31
REMARK   13  A    between atoms: _31  and  _32
REMARK   14  A    between atoms: _31  and  _34
REMARK   15  A    between atoms: _34  and  _35
REMARK   16  A    between atoms: _38  and  _40
REMARK   17  A    between atoms: _40  and  _41
REMARK   18  A    between atoms: _40  and  _43
REMARK   19  A    between atoms: _43  and  _44
REMARK   20  A    between atoms: _44  and  _79
REMARK   21  A    between atoms: _45  and  _47
REMARK   22  A    between atoms: _47  and  _48
REMARK   23  A    between atoms: _50  and  _52
REMARK   24  A    between atoms: _52  and  _53
REMARK   25  A    between atoms: _56  and  _58
REMARK   26  A    between atoms: _58  and  _59
REMARK   27  A    between atoms: _62  and  _64
REMARK   28  A    between atoms: _64  and  _65
REMARK   29  A    between atoms: _64  and  _67
REMARK   30  A    between atoms: _67  and  _68
REMARK   31  A    between atoms: _73  and  _75
REMARK   32  A    between atoms: _75  and  _76
REMARK   33  A    between atoms: _75  and  _78
REMARK   34  A    between atoms: _78  and  _79
REMARK   35  A    between atoms: _80  and  _82
REMARK   36  A    between atoms: _82  and  _83
REMARK   37  A    between atoms: _82  and  _85
REMARK   38  A    between atoms: _85  and  _86
REMARK   39  A    between atoms: _92  and  _94
REMARK   40  A    between atoms: _94  and  _95
REMARK   41  A    between atoms: _94  and  _97
REMARK   42  A    between atoms: _97  and  _98
REMARK   43  A    between atoms: _101  and  _103
REMARK   44  A    between atoms: _103  and  _104
REMARK   45  A    between atoms: _103  and  _106
REMARK   46  A    between atoms: _106  and  _107
REMARK   47  A    between atoms: _107  and  _108
REMARK   48  A    between atoms: _108  and  _109
REMARK   49  A    between atoms: _109  and  _110
REMARK   50  A    between atoms: _114  and  _116
REMARK   51  A    between atoms: _116  and  _117
REMARK   52  A    between atoms: _116  and  _119
REMARK   53  A    between atoms: _119  and  _120
REMARK   54  A    between atoms: _123  and  _125
REMARK   55  A    between atoms: _125  and  _126
REMARK   56  A    between atoms: _125  and  _128
REMARK   57  A    between atoms: _128  and  _129
REMARK   58  A    between atoms: _134  and  _135
REMARK   59  A    between atoms: _137  and  _139
REMARK   60  A    between atoms: _139  and  _140
REMARK   61  A    between atoms: _139  and  _142
REMARK   62  A    between atoms: _146  and  _147
REMARK   63  A    between atoms: _152  and  _154
REMARK   64  A    between atoms: _154  and  _155
REMARK   65  A    between atoms: _157  and  _159
REMARK   66  A    between atoms: _159  and  _160
REMARK   67  A    between atoms: _159  and  _162
REMARK   68  A    between atoms: _162  and  _163
REMARK   69  A    between atoms: _166  and  _168
REMARK   70  A    between atoms: _168  and  _169
REMARK   71  A    between atoms: _168  and  _171
REMARK   72  A    between atoms: _171  and  _172
REMARK   73  A    between atoms: _175  and  _177
REMARK   74  A    between atoms: _177  and  _178
REMARK   75  A    between atoms: _177  and  _180
REMARK   76  A    between atoms: _180  and  _181
REMARK   77  A    between atoms: _186  and  _188
REMARK   78  A    between atoms: _188  and  _189
REMARK   79  A    between atoms: _188  and  _191
REMARK   80  A    between atoms: _191  and  _192
REMARK   81  A    between atoms: _195  and  _197
REMARK   82  A    between atoms: _197  and  _198
REMARK   83  A    between atoms: _197  and  _200
REMARK   84  A    between atoms: _203  and  _205
REMARK   85  A    between atoms: _205  and  _206
REMARK   86  A    between atoms: _205  and  _208
REMARK   87  A    between atoms: _208  and  _209
REMARK   88  A    between atoms: _209  and  _210
REMARK   89  A    between atoms: _215  and  _217
REMARK   90  A    between atoms: _217  and  _218
REMARK   91  A    between atoms: _217  and  _220
REMARK   92  A    between atoms: _220  and  _221
REMARK   93  A    between atoms: _224  and  _226
REMARK   94  A    between atoms: _226  and  _227
REMARK   95  A    between atoms: _226  and  _229
REMARK   96  A    between atoms: _229  and  _230
REMARK   97  A    between atoms: _233  and  _235
REMARK   98  A    between atoms: _235  and  _236
REMARK   99  A    between atoms: _235  and  _238
REMARK  100  A    between atoms: _238  and  _239
REMARK  101  A    between atoms: _242  and  _243
REMARK  102  A    between atoms: _248  and  _250
REMARK  103  A    between atoms: _250  and  _251
REMARK  104  A    between atoms: _254  and  _256
REMARK  105  A    between atoms: _256  and  _257
REMARK  106  A    between atoms: _256  and  _259
REMARK  107  A    between atoms: _259  and  _260
REMARK  108  A    between atoms: _265  and  _266
REMARK  109  A    between atoms: _268  and  _270
REMARK  110  A    between atoms: _270  and  _271
REMARK  111  A    between atoms: _270  and  _273
REMARK  112  A    between atoms: _273  and  _274
REMARK  113  A    between atoms: _274  and  _275
REMARK  114  A    between atoms: _275  and  _276
REMARK  115  A    between atoms: _276  and  _277
REMARK  116  A    between atoms: _281  and  _283
REMARK  117  A    between atoms: _283  and  _284
REMARK  118  A    between atoms: _283  and  _286
REMARK  119  A    between atoms: _286  and  _287
REMARK  120  A    between atoms: _290  and  _292
REMARK  121  A    between atoms: _292  and  _293
REMARK  122  A    between atoms: _292  and  _295
REMARK  123  A    between atoms: _295  and  _296
REMARK  124  A    between atoms: _298  and  _300
REMARK  125  A    between atoms: _300  and  _301
REMARK  126  A    between atoms: _300  and  _303
REMARK  127  A    between atoms: _303  and  _304
REMARK  128  A    between atoms: _304  and  _419
REMARK  129  A    between atoms: _305  and  _307
REMARK  130  A    between atoms: _307  and  _308
REMARK  131  A    between atoms: _307  and  _310
REMARK  132  A    between atoms: _310  and  _311
REMARK  133  A    between atoms: _311  and  _312
REMARK  134  A    between atoms: _312  and  _313
REMARK  135  A    between atoms: _313  and  _314
REMARK  136  A    between atoms: _318  and  _320
REMARK  137  A    between atoms: _320  and  _321
REMARK  138  A    between atoms: _323  and  _325
REMARK  139  A    between atoms: _325  and  _326
REMARK  140  A    between atoms: _325  and  _328
REMARK  141  A    between atoms: _328  and  _329
REMARK  142  A    between atoms: _332  and  _334
REMARK  143  A    between atoms: _334  and  _335
REMARK  144  A    between atoms: _334  and  _337
REMARK  145  A    between atoms: _337  and  _338
REMARK  146  A    between atoms: _340  and  _342
REMARK  147  A    between atoms: _342  and  _343
REMARK  148  A    between atoms: _345  and  _347
REMARK  149  A    between atoms: _347  and  _348
REMARK  150  A    between atoms: _350  and  _352
REMARK  151  A    between atoms: _352  and  _353
REMARK  152  A    between atoms: _352  and  _355
REMARK  153  A    between atoms: _355  and  _356
REMARK  154  A    between atoms: _359  and  _361
REMARK  155  A    between atoms: _361  and  _362
REMARK  156  A    between atoms: _361  and  _364
REMARK  157  A    between atoms: _367  and  _369
REMARK  158  A    between atoms: _369  and  _370
REMARK  159  A    between atoms: _369  and  _372
REMARK  160  A    between atoms: _372  and  _373
REMARK  161  A    between atoms: _375  and  _377
REMARK  162  A    between atoms: _377  and  _378
REMARK  163  A    between atoms: _377  and  _380
REMARK  164  A    between atoms: _380  and  _381
REMARK  165  A    between atoms: _391  and  _393
REMARK  166  A    between atoms: _393  and  _394
REMARK  167  A    between atoms: _396  and  _398
REMARK  168  A    between atoms: _398  and  _399
REMARK  169  A    between atoms: _398  and  _401
REMARK  170  A    between atoms: _401  and  _402
REMARK  171  A    between atoms: _402  and  _403
REMARK  172  A    between atoms: _408  and  _410
REMARK  173  A    between atoms: _410  and  _411
REMARK  174  A    between atoms: _413  and  _415
REMARK  175  A    between atoms: _415  and  _416
REMARK  176  A    between atoms: _415  and  _418
REMARK  177  A    between atoms: _418  and  _419
REMARK  178  A    between atoms: _420  and  _422
REMARK  179  A    between atoms: _422  and  _423
REMARK  180  A    between atoms: _426  and  _428
REMARK  181  A    between atoms: _428  and  _429
REMARK  182  A    between atoms: _428  and  _431
REMARK  183  A    between atoms: _431  and  _432
REMARK  184  A    between atoms: _435  and  _437
REMARK  185  A    between atoms: _437  and  _438
REMARK  186  A    between atoms: _437  and  _440
REMARK  187  A    between atoms: _440  and  _441
REMARK  188  A    between atoms: _446  and  _448
REMARK  189  A    between atoms: _448  and  _449
REMARK  190  A    between atoms: _448  and  _451
REMARK  191  A    between atoms: _451  and  _452
REMARK  192  A    between atoms: _458  and  _460
REMARK  193  A    between atoms: _460  and  _461
REMARK  194  A    between atoms: _463  and  _465
REMARK  195  A    between atoms: _465  and  _466
REMARK  196  A    between atoms: _465  and  _468
REMARK  197  A    between atoms: _471  and  _473
REMARK  198  A    between atoms: _473  and  _474
REMARK  199  A    between atoms: _473  and  _476
REMARK  200  A    between atoms: _476  and  _477
REMARK  201  A    between atoms: _482  and  _483
REMARK                            x       y       z     vdW  Elec       q    Type
REMARK                         _______ _______ _______ _____ _____    ______ ____
ROOT
ATOM      1  CA  ASP A   1      13.869  41.164  33.904  0.00  0.00    +0.144 C 
ENDROOT
BRANCH   1   2
ATOM      2  N   ASP A   1      15.182  40.582  34.156  0.00  0.00    -0.239 NA
ATOM      3  H   ASP A   1      15.322  40.051  35.039  0.00  0.00    +0.142 HD
ENDBRANCH   1   2
BRANCH   1   4
ATOM      4  C   ASP A   1      14.082  42.701  33.965  0.00  0.00    +0.225 C 
ATOM      5  O   ASP A   1      14.648  43.211  34.943  0.00  0.00    -0.287 OA
ENDBRANCH   1   4
BRANCH   1   6
ATOM      6  CB  ASP A   1      12.848  40.692  34.954  0.00  0.00    +0.139 C 
BRANCH   6   7
ATOM      7  CG  ASP A   1      11.502  41.401  34.879  0.00  0.00    +0.367 C 
ATOM      8  OD2 ASP A   1      11.154  42.120  35.852  0.00  0.00    -0.246 OA
ATOM      9  OD1 ASP A   1      10.826  41.292  33.825  0.00  0.00    -0.246 OA
ENDBRANCH   6   7
ENDBRANCH   1   6
TORSDOF 4
REMARK  Name = ../refined-set-2016/4x8v/4x8v_pocket.pdb
REMARK  201 active torsions:
REMARK  status: ('A' for Active; 'I' for Inactive)
REMARK    1  A    between atoms: _1  and  _3
REMARK    2  A    between atoms: _3  and  _4
REMARK    3  A    between atoms: _3  and  _6
REMARK    4  A    between atoms: _9  and  _11
REMARK    5  A    between atoms: _11  and  _12
REMARK    6  A    between atoms: _11  and  _14
REMARK    7  A    between atoms: _17  and  _19
REMARK    8  A    between atoms: _19  and  _20
REMARK    9  A    between atoms: _19  and  _22
REMARK   10  A    between atoms: _22  and  _23
REMARK   11  A    between atoms: _23  and  _24
REMARK   12  A    between atoms: _29  and  _31
REMARK   13  A    between atoms: _31  and  _32
REMARK   14  A    between atoms: _31  and  _34
REMARK   15  A    between atoms: _34  and  _35
REMARK   16  A    between atoms: _38  and  _40
REMARK   17  A    between atoms: _40  and  _41
REMARK   18  A    between atoms: _40  and  _43
REMARK   19  A    between atoms: _43  and  _44
REMARK   20  A    between atoms: _44  and  _79
REMARK   21  A    between atoms: _45  and  _47
REMARK   22  A    between atoms: _47  and  _48
REMARK   23  A    between atoms: _50  and  _52
REMARK   24  A    between atoms: _52  and  _53
REMARK   25  A    between atoms: _56  and  _58
REMARK   26  A    between atoms: _58  and  _59
REMARK   27  A    between atoms: _62  and  _64
REMARK   28  A    between atoms: _64  and  _65
REMARK   29  A    between atoms: _64  and  _67
REMARK   30  A    between atoms: _67  and  _68
REMARK   31  A    between atoms: _73  and  _75
REMARK   32  A    between atoms: _75  and  _76
REMARK   33  A    between atoms: _75  and  _78
REMARK   34  A    between atoms: _78  and  _79
REMARK   35  A    between atoms: _80  and  _82
REMARK   36  A    between atoms: _82  and  _83
REMARK   37  A    between atoms: _82  and  _85
REMARK   38  A    between atoms: _85  and  _86
REMARK   39  A    between atoms: _92  and  _94
REMARK   40  A    between atoms: _94  and  _95
REMARK   41  A    between atoms: _94  and  _97
REMARK   42  A    between atoms: _97  and  _98
REMARK   43  A    between atoms: _101  and  _103
REMARK   44  A    between atoms: _103  and  _104
REMARK   45  A    between atoms: _103  and  _106
REMARK   46  A    between atoms: _106  and  _107
REMARK   47  A    between atoms: _107  and  _108
REMARK   48  A    between atoms: _108  and  _109
REMARK   49  A    between atoms: _109  and  _110
REMARK   50  A    between atoms: _114  and  _116
REMARK   51  A    between atoms: _116  and  _117
REMARK   52  A    between atoms: _116  and  _119
REMARK   53  A    between atoms: _119  and  _120
REMARK   54  A    between atoms: _123  and  _125
REMARK   55  A    between atoms: _125  and  _126
REMARK   56  A    between atoms: _125  and  _128
REMARK   57  A    between atoms: _128  and  _129
REMARK   58  A    between atoms: _134  and  _135
REMARK   59  A    between atoms: _137  and  _139
REMARK   60  A    between atoms: _139  and  _140
REMARK   61  A    between atoms: _139  and  _142
REMARK   62  A    between atoms: _146  and  _147
REMARK   63  A    between atoms: _152  and  _154
REMARK   64  A    between atoms: _154  and  _155
REMARK   65  A    between atoms: _157  and  _159
REMARK   66  A    between atoms: _159  and  _160
REMARK   67  A    between atoms: _159  and  _162
REMARK   68  A    between atoms: _162  and  _163
REMARK   69  A    between atoms: _166  and  _168
REMARK   70  A    between atoms: _168  and  _169
REMARK   71  A    between atoms: _168  and  _171
REMARK   72  A    between atoms: _171  and  _172
REMARK   73  A    between atoms: _175  and  _177
REMARK   74  A    between atoms: _177  and  _178
REMARK   75  A    between atoms: _177  and  _180
REMARK   76  A    between atoms: _180  and  _181
REMARK   77  A    between atoms: _186  and  _188
REMARK   78  A    between atoms: _188  and  _189
REMARK   79  A    between atoms: _188  and  _191
REMARK   80  A    between atoms: _191  and  _192
REMARK   81  A    between atoms: _195  and  _197
REMARK   82  A    between atoms: _197  and  _198
REMARK   83  A    between atoms: _197  and  _200
REMARK   84  A    between atoms: _203  and  _205
REMARK   85  A    between atoms: _205  and  _206
REMARK   86  A    between atoms: _205  and  _208
REMARK   87  A    between atoms: _208  and  _209
REMARK   88  A    between atoms: _209  and  _210
REMARK   89  A    between atoms: _215  and  _217
REMARK   90  A    between atoms: _217  and  _218
REMARK   91  A    between atoms: _217  and  _220
REMARK   92  A    between atoms: _220  and  _221
REMARK   93  A    between atoms: _224  and  _226
REMARK   94  A    between atoms: _226  and  _227
REMARK   95  A    between atoms: _226  and  _229
REMARK   96  A    between atoms: _229  and  _230
REMARK   97  A    between atoms: _233  and  _235
REMARK   98  A    between atoms: _235  and  _236
REMARK   99  A    between atoms: _235  and  _238
REMARK  100  A    between atoms: _238  and  _239
REMARK  101  A    between atoms: _242  and  _243
REMARK  102  A    between atoms: _248  and  _250
REMARK  103  A    between atoms: _250  and  _251
REMARK  104  A    between atoms: _254  and  _256
REMARK  105  A    between atoms: _256  and  _257
REMARK  106  A    between atoms: _256  and  _259
REMARK  107  A    between atoms: _259  and  _260
REMARK  108  A    between atoms: _265  and  _266
REMARK  109  A    between atoms: _268  and  _270
REMARK  110  A    between atoms: _270  and  _271
REMARK  111  A    between atoms: _270  and  _273
REMARK  112  A    between atoms: _273  and  _274
REMARK  113  A    between atoms: _274  and  _275
REMARK  114  A    between atoms: _275  and  _276
REMARK  115  A    between atoms: _276  and  _277
REMARK  116  A    between atoms: _281  and  _283
REMARK  117  A    between atoms: _283  and  _284
REMARK  118  A    between atoms: _283  and  _286
REMARK  119  A    between atoms: _286  and  _287
REMARK  120  A    between atoms: _290  and  _292
REMARK  121  A    between atoms: _292  and  _293
REMARK  122  A    between atoms: _292  and  _295
REMARK  123  A    between atoms: _295  and  _296
REMARK  124  A    between atoms: _298  and  _300
REMARK  125  A    between atoms: _300  and  _301
REMARK  126  A    between atoms: _300  and  _303
REMARK  127  A    between atoms: _303  and  _304
REMARK  128  A    between atoms: _304  and  _419
REMARK  129  A    between atoms: _305  and  _307
REMARK  130  A    between atoms: _307  and  _308
REMARK  131  A    between atoms: _307  and  _310
REMARK  132  A    between atoms: _310  and  _311
REMARK  133  A    between atoms: _311  and  _312
REMARK  134  A    between atoms: _312  and  _313
REMARK  135  A    between atoms: _313  and  _314
REMARK  136  A    between atoms: _318  and  _320
REMARK  137  A    between atoms: _320  and  _321
REMARK  138  A    between atoms: _323  and  _325
REMARK  139  A    between atoms: _325  and  _326
REMARK  140  A    between atoms: _325  and  _328
REMARK  141  A    between atoms: _328  and  _329
REMARK  142  A    between atoms: _332  and  _334
REMARK  143  A    between atoms: _334  and  _335
REMARK  144  A    between atoms: _334  and  _337
REMARK  145  A    between atoms: _337  and  _338
REMARK  146  A    between atoms: _340  and  _342
REMARK  147  A    between atoms: _342  and  _343
REMARK  148  A    between atoms: _345  and  _347
REMARK  149  A    between atoms: _347  and  _348
REMARK  150  A    between atoms: _350  and  _352
REMARK  151  A    between atoms: _352  and  _353
REMARK  152  A    between atoms: _352  and  _355
REMARK  153  A    between atoms: _355  and  _356
REMARK  154  A    between atoms: _359  and  _361
REMARK  155  A    between atoms: _361  and  _362
REMARK  156  A    between atoms: _361  and  _364
REMARK  157  A    between atoms: _367  and  _369
REMARK  158  A    between atoms: _369  and  _370
REMARK  159  A    between atoms: _369  and  _372
REMARK  160  A    between atoms: _372  and  _373
REMARK  161  A    between atoms: _375  and  _377
REMARK  162  A    between atoms: _377  and  _378
REMARK  163  A    between atoms: _377  and  _380
REMARK  164  A    between atoms: _380  and  _381
REMARK  165  A    between atoms: _391  and  _393
REMARK  166  A    between atoms: _393  and  _394
REMARK  167  A    between atoms: _396  and  _398
REMARK  168  A    between atoms: _398  and  _399
REMARK  169  A    between atoms: _398  and  _401
REMARK  170  A    between atoms: _401  and  _402
REMARK  171  A    between atoms: _402  and  _403
REMARK  172  A    between atoms: _408  and  _410
REMARK  173  A    between atoms: _410  and  _411
REMARK  174  A    between atoms: _413  and  _415
REMARK  175  A    between atoms: _415  and  _416
REMARK  176  A    between atoms: _415  and  _418
REMARK  177  A    between atoms: _418  and  _419
REMARK  178  A    between atoms: _420  and  _422
REMARK  179  A    between atoms: _422  and  _423
REMARK  180  A    between atoms: _426  and  _428
REMARK  181  A    between atoms: _428  and  _429
REMARK  182  A    between atoms: _428  and  _431
REMARK  183  A    between atoms: _431  and  _432
REMARK  184  A    between atoms: _435  and  _437
REMARK  185  A    between atoms: _437  and  _438
REMARK  186  A    between atoms: _437  and  _440
REMARK  187  A    between atoms: _440  and  _441
REMARK  188  A    between atoms: _446  and  _448
REMARK  189  A    between atoms: _448  and  _449
REMARK  190  A    between atoms: _448  and  _451
REMARK  191  A    between atoms: _451  and  _452
REMARK  192  A    between atoms: _458  and  _460
REMARK  193  A    between atoms: _460  and  _461
REMARK  194  A    between atoms: _463  and  _465
REMARK  195  A    between atoms: _465  and  _466
REMARK  196  A    between atoms: _465  and  _468
REMARK  197  A    between atoms: _471  and  _473
REMARK  198  A    between atoms: _473  and  _474
REMARK  199  A    between atoms: _473  and  _476
REMARK  200  A    between atoms: _476  and  _477
REMARK  201  A    between atoms: _482  and  _483
REMARK                            x       y       z     vdW  Elec       q    Type
REMARK                         _______ _______ _______ _____ _____    ______ ____
ROOT
ATOM      1  CA  SER A   2      -2.662  34.019  33.197  0.00  0.00    +0.178 C 
ENDROOT
BRANCH   1   2
ATOM      2  C   SER A   2      -3.127  32.903  32.268  0.00  0.00    +0.246 C 
ATOM      3  O   SER A   2      -3.973  32.105  32.687  0.00  0.00    -0.273 OA
ATOM      4  N   PRO A   3      -2.616  32.820  31.011  0.00  0.00    -0.273 N 
ATOM      5  CD  PRO A   3      -1.635  33.694  30.336  0.00  0.00    +0.094 C 
ATOM      6  CG  PRO A   3      -1.904  33.444  28.884  0.00  0.00    +0.024 C 
ATOM      7  CB  PRO A   3      -2.281  32.012  28.823  0.00  0.00    +0.030 C 
ATOM      8  CA  PRO A   3      -3.093  31.771  30.099  0.00  0.00    +0.140 C 
BRANCH   8   9
ATOM      9  C   PRO A   3      -2.931  30.350  30.633  0.00  0.00    +0.227 C 
ATOM     10  O   PRO A   3      -2.089  30.091  31.500  0.00  0.00    -0.286 OA
ENDBRANCH   8   9
ENDBRANCH   1   2
BRANCH   1  12
ATOM     11  C   ASP A   1      -4.530  35.666  32.789  0.00  0.00    +0.239 C 
ATOM     12  N   SER A   2      -3.803  34.850  33.608  0.00  0.00    -0.295 N 
ATOM     13  H   SER A   2      -4.081  34.813  34.610  0.00  0.00    +0.150 HD
ATOM     14  O   ASP A   1      -4.319  35.765  31.574  0.00  0.00    -0.274 OA
BRANCH  11  15
ATOM     15  CA  ASP A   1      -5.706  36.459  33.431  0.00  0.00    +0.156 C 
BRANCH  15  16
ATOM     16  N   ASP A   1      -5.885  36.140  34.862  0.00  0.00    -0.238 NA
ATOM     17  H   ASP A   1      -6.789  35.706  35.138  0.00  0.00    +0.142 HD
ENDBRANCH  15  16
BRANCH  15  18
ATOM     18  CB  ASP A   1      -5.595  37.991  33.187  0.00  0.00    +0.140 C 
BRANCH  18  19
ATOM     19  CG  ASP A   1      -5.744  38.441  31.736  0.00  0.00    +0.367 C 
ATOM     20  OD2 ASP A   1      -6.862  38.306  31.181  0.00  0.00    -0.246 OA
ATOM     21  OD1 ASP A   1      -4.753  38.957  31.168  0.00  0.00    -0.246 OA
ENDBRANCH  18  19
ENDBRANCH  15  18
ENDBRANCH  11  15
ENDBRANCH   1  12
BRANCH   1  22
ATOM     22  CB  SER A   2      -1.957  33.421  34.412  0.00  0.00    +0.166 C 
BRANCH  22  23
ATOM     23  OG  SER A   2      -2.738  32.429  35.058  0.00  0.00    -0.380 OA
ATOM     24  H   SER A   2      -2.928  31.694  34.422  0.00  0.00    +0.211 HD
ENDBRANCH  22  23
ENDBRANCH   1  22
TORSDOF 9
REMARK  Name = ../refined-set-2016/4x8v/4x8v_pocket.pdb
REMARK  201 active torsions:
REMARK  status: ('A' for Active; 'I' for Inactive)
REMARK    1  A    between atoms: _1  and  _3
REMARK    2  A    between atoms: _3  and  _4
REMARK    3  A    between atoms: _3  and  _6
REMARK    4  A    between atoms: _9  and  _11
REMARK    5  A    between atoms: _11  and  _12
REMARK    6  A    between atoms: _11  and  _14
REMARK    7  A    between atoms: _17  and  _19
REMARK    8  A    between atoms: _19  and  _20
REMARK    9  A    between atoms: _19  and  _22
REMARK   10  A    between atoms: _22  and  _23
REMARK   11  A    between atoms: _23  and  _24
REMARK   12  A    between atoms: _29  and  _31
REMARK   13  A    between atoms: _31  and  _32
REMARK   14  A    between atoms: _31  and  _34
REMARK   15  A    between atoms: _34  and  _35
REMARK   16  A    between atoms: _38  and  _40
REMARK   17  A    between atoms: _40  and  _41
REMARK   18  A    between atoms: _40  and  _43
REMARK   19  A    between atoms: _43  and  _44
REMARK   20  A    between atoms: _44  and  _79
REMARK   21  A    between atoms: _45  and  _47
REMARK   22  A    between atoms: _47  and  _48
REMARK   23  A    between atoms: _50  and  _52
REMARK   24  A    between atoms: _52  and  _53
REMARK   25  A    between atoms: _56  and  _58
REMARK   26  A    between atoms: _58  and  _59
REMARK   27  A    between atoms: _62  and  _64
REMARK   28  A    between atoms: _64  and  _65
REMARK   29  A    between atoms: _64  and  _67
REMARK   30  A    between atoms: _67  and  _68
REMARK   31  A    between atoms: _73  and  _75
REMARK   32  A    between atoms: _75  and  _76
REMARK   33  A    between atoms: _75  and  _78
REMARK   34  A    between atoms: _78  and  _79
REMARK   35  A    between atoms: _80  and  _82
REMARK   36  A    between atoms: _82  and  _83
REMARK   37  A    between atoms: _82  and  _85
REMARK   38  A    between atoms: _85  and  _86
REMARK   39  A    between atoms: _92  and  _94
REMARK   40  A    between atoms: _94  and  _95
REMARK   41  A    between atoms: _94  and  _97
REMARK   42  A    between atoms: _97  and  _98
REMARK   43  A    between atoms: _101  and  _103
REMARK   44  A    between atoms: _103  and  _104
REMARK   45  A    between atoms: _103  and  _106
REMARK   46  A    between atoms: _106  and  _107
REMARK   47  A    between atoms: _107  and  _108
REMARK   48  A    between atoms: _108  and  _109
REMARK   49  A    between atoms: _109  and  _110
REMARK   50  A    between atoms: _114  and  _116
REMARK   51  A    between atoms: _116  and  _117
REMARK   52  A    between atoms: _116  and  _119
REMARK   53  A    between atoms: _119  and  _120
REMARK   54  A    between atoms: _123  and  _125
REMARK   55  A    between atoms: _125  and  _126
REMARK   56  A    between atoms: _125  and  _128
REMARK   57  A    between atoms: _128  and  _129
REMARK   58  A    between atoms: _134  and  _135
REMARK   59  A    between atoms: _137  and  _139
REMARK   60  A    between atoms: _139  and  _140
REMARK   61  A    between atoms: _139  and  _142
REMARK   62  A    between atoms: _146  and  _147
REMARK   63  A    between atoms: _152  and  _154
REMARK   64  A    between atoms: _154  and  _155
REMARK   65  A    between atoms: _157  and  _159
REMARK   66  A    between atoms: _159  and  _160
REMARK   67  A    between atoms: _159  and  _162
REMARK   68  A    between atoms: _162  and  _163
REMARK   69  A    between atoms: _166  and  _168
REMARK   70  A    between atoms: _168  and  _169
REMARK   71  A    between atoms: _168  and  _171
REMARK   72  A    between atoms: _171  and  _172
REMARK   73  A    between atoms: _175  and  _177
REMARK   74  A    between atoms: _177  and  _178
REMARK   75  A    between atoms: _177  and  _180
REMARK   76  A    between atoms: _180  and  _181
REMARK   77  A    between atoms: _186  and  _188
REMARK   78  A    between atoms: _188  and  _189
REMARK   79  A    between atoms: _188  and  _191
REMARK   80  A    between atoms: _191  and  _192
REMARK   81  A    between atoms: _195  and  _197
REMARK   82  A    between atoms: _197  and  _198
REMARK   83  A    between atoms: _197  and  _200
REMARK   84  A    between atoms: _203  and  _205
REMARK   85  A    between atoms: _205  and  _206
REMARK   86  A    between atoms: _205  and  _208
REMARK   87  A    between atoms: _208  and  _209
REMARK   88  A    between atoms: _209  and  _210
REMARK   89  A    between atoms: _215  and  _217
REMARK   90  A    between atoms: _217  and  _218
REMARK   91  A    between atoms: _217  and  _220
REMARK   92  A    between atoms: _220  and  _221
REMARK   93  A    between atoms: _224  and  _226
REMARK   94  A    between atoms: _226  and  _227
REMARK   95  A    between atoms: _226  and  _229
REMARK   96  A    between atoms: _229  and  _230
REMARK   97  A    between atoms: _233  and  _235
REMARK   98  A    between atoms: _235  and  _236
REMARK   99  A    between atoms: _235  and  _238
REMARK  100  A    between atoms: _238  and  _239
REMARK  101  A    between atoms: _242  and  _243
REMARK  102  A    between atoms: _248  and  _250
REMARK  103  A    between atoms: _250  and  _251
REMARK  104  A    between atoms: _254  and  _256
REMARK  105  A    between atoms: _256  and  _257
REMARK  106  A    between atoms: _256  and  _259
REMARK  107  A    between atoms: _259  and  _260
REMARK  108  A    between atoms: _265  and  _266
REMARK  109  A    between atoms: _268  and  _270
REMARK  110  A    between atoms: _270  and  _271
REMARK  111  A    between atoms: _270  and  _273
REMARK  112  A    between atoms: _273  and  _274
REMARK  113  A    between atoms: _274  and  _275
REMARK  114  A    between atoms: _275  and  _276
REMARK  115  A    between atoms: _276  and  _277
REMARK  116  A    between atoms: _281  and  _283
REMARK  117  A    between atoms: _283  and  _284
REMARK  118  A    between atoms: _283  and  _286
REMARK  119  A    between atoms: _286  and  _287
REMARK  120  A    between atoms: _290  and  _292
REMARK  121  A    between atoms: _292  and  _293
REMARK  122  A    between atoms: _292  and  _295
REMARK  123  A    between atoms: _295  and  _296
REMARK  124  A    between atoms: _298  and  _300
REMARK  125  A    between atoms: _300  and  _301
REMARK  126  A    between atoms: _300  and  _303
REMARK  127  A    between atoms: _303  and  _304
REMARK  128  A    between atoms: _304  and  _419
REMARK  129  A    between atoms: _305  and  _307
REMARK  130  A    between atoms: _307  and  _308
REMARK  131  A    between atoms: _307  and  _310
REMARK  132  A    between atoms: _310  and  _311
REMARK  133  A    between atoms: _311  and  _312
REMARK  134  A    between atoms: _312  and  _313
REMARK  135  A    between atoms: _313  and  _314
REMARK  136  A    between atoms: _318  and  _320
REMARK  137  A    between atoms: _320  and  _321
REMARK  138  A    between atoms: _323  and  _325
REMARK  139  A    between atoms: _325  and  _326
REMARK  140  A    between atoms: _325  and  _328
REMARK  141  A    between atoms: _328  and  _329
REMARK  142  A    between atoms: _332  and  _334
REMARK  143  A    between atoms: _334  and  _335
REMARK  144  A    between atoms: _334  and  _337
REMARK  145  A    between atoms: _337  and  _338
REMARK  146  A    between atoms: _340  and  _342
REMARK  147  A    between atoms: _342  and  _343
REMARK  148  A    between atoms: _345  and  _347
REMARK  149  A    between atoms: _347  and  _348
REMARK  150  A    between atoms: _350  and  _352
REMARK  151  A    between atoms: _352  and  _353
REMARK  152  A    between atoms: _352  and  _355
REMARK  153  A    between atoms: _355  and  _356
REMARK  154  A    between atoms: _359  and  _361
REMARK  155  A    between atoms: _361  and  _362
REMARK  156  A    between atoms: _361  and  _364
REMARK  157  A    between atoms: _367  and  _369
REMARK  158  A    between atoms: _369  and  _370
REMARK  159  A    between atoms: _369  and  _372
REMARK  160  A    between atoms: _372  and  _373
REMARK  161  A    between atoms: _375  and  _377
REMARK  162  A    between atoms: _377  and  _378
REMARK  163  A    between atoms: _377  and  _380
REMARK  164  A    between atoms: _380  and  _381
REMARK  165  A    between atoms: _391  and  _393
REMARK  166  A    between atoms: _393  and  _394
REMARK  167  A    between atoms: _396  and  _398
REMARK  168  A    between atoms: _398  and  _399
REMARK  169  A    between atoms: _398  and  _401
REMARK  170  A    between atoms: _401  and  _402
REMARK  171  A    between atoms: _402  and  _403
REMARK  172  A    between atoms: _408  and  _410
REMARK  173  A    between atoms: _410  and  _411
REMARK  174  A    between atoms: _413  and  _415
REMARK  175  A    between atoms: _415  and  _416
REMARK  176  A    between atoms: _415  and  _418
REMARK  177  A    between atoms: _418  and  _419
REMARK  178  A    between atoms: _420  and  _422
REMARK  179  A    between atoms: _422  and  _423
REMARK  180  A    between atoms: _426  and  _428
REMARK  181  A    between atoms: _428  and  _429
REMARK  182  A    between atoms: _428  and  _431
REMARK  183  A    between atoms: _431  and  _432
REMARK  184  A    between atoms: _435  and  _437
REMARK  185  A    between atoms: _437  and  _438
REMARK  186  A    between atoms: _437  and  _440
REMARK  187  A    between atoms: _440  and  _441
REMARK  188  A    between atoms: _446  and  _448
REMARK  189  A    between atoms: _448  and  _449
REMARK  190  A    between atoms: _448  and  _451
REMARK  191  A    between atoms: _451  and  _452
REMARK  192  A    between atoms: _458  and  _460
REMARK  193  A    between atoms: _460  and  _461
REMARK  194  A    between atoms: _463  and  _465
REMARK  195  A    between atoms: _465  and  _466
REMARK  196  A    between atoms: _465  and  _468
REMARK  197  A    between atoms: _471  and  _473
REMARK  198  A    between atoms: _473  and  _474
REMARK  199  A    between atoms: _473  and  _476
REMARK  200  A    between atoms: _476  and  _477
REMARK  201  A    between atoms: _482  and  _483
REMARK                            x       y       z     vdW  Elec       q    Type
REMARK                         _______ _______ _______ _____ _____    ______ ____
ROOT
ATOM      1  CA  ALA A   1      10.565  24.183  32.330  0.00  0.00    +0.133 C 
ATOM      2  CB  ALA A   1      11.353  23.818  31.059  0.00  0.00    +0.027 C 
ENDROOT
BRANCH   1   3
ATOM      3  N   ALA A   1       9.183  24.525  32.029  0.00  0.00    -0.239 NA
ATOM      4  H   ALA A   1       8.931  25.530  31.944  0.00  0.00    +0.142 HD
ENDBRANCH   1   3
BRANCH   1   5
ATOM      5  C   ALA A   1      11.159  25.398  33.034  0.00  0.00    +0.224 C 
ATOM      6  O   ALA A   1      10.698  26.518  32.806  0.00  0.00    -0.287 OA
ENDBRANCH   1   5
TORSDOF 2
REMARK  Name = ../refined-set-2016/4x8v/4x8v_pocket.pdb
REMARK  201 active torsions:
REMARK  status: ('A' for Active; 'I' for Inactive)
REMARK    1  A    between atoms: _1  and  _3
REMARK    2  A    between atoms: _3  and  _4
REMARK    3  A    between atoms: _3  and  _6
REMARK    4  A    between atoms: _9  and  _11
REMARK    5  A    between atoms: _11  and  _12
REMARK    6  A    between atoms: _11  and  _14
REMARK    7  A    between atoms: _17  and  _19
REMARK    8  A    between atoms: _19  and  _20
REMARK    9  A    between atoms: _19  and  _22
REMARK   10  A    between atoms: _22  and  _23
REMARK   11  A    between atoms: _23  and  _24
REMARK   12  A    between atoms: _29  and  _31
REMARK   13  A    between atoms: _31  and  _32
REMARK   14  A    between atoms: _31  and  _34
REMARK   15  A    between atoms: _34  and  _35
REMARK   16  A    between atoms: _38  and  _40
REMARK   17  A    between atoms: _40  and  _41
REMARK   18  A    between atoms: _40  and  _43
REMARK   19  A    between atoms: _43  and  _44
REMARK   20  A    between atoms: _44  and  _79
REMARK   21  A    between atoms: _45  and  _47
REMARK   22  A    between atoms: _47  and  _48
REMARK   23  A    between atoms: _50  and  _52
REMARK   24  A    between atoms: _52  and  _53
REMARK   25  A    between atoms: _56  and  _58
REMARK   26  A    between atoms: _58  and  _59
REMARK   27  A    between atoms: _62  and  _64
REMARK   28  A    between atoms: _64  and  _65
REMARK   29  A    between atoms: _64  and  _67
REMARK   30  A    between atoms: _67  and  _68
REMARK   31  A    between atoms: _73  and  _75
REMARK   32  A    between atoms: _75  and  _76
REMARK   33  A    between atoms: _75  and  _78
REMARK   34  A    between atoms: _78  and  _79
REMARK   35  A    between atoms: _80  and  _82
REMARK   36  A    between atoms: _82  and  _83
REMARK   37  A    between atoms: _82  and  _85
REMARK   38  A    between atoms: _85  and  _86
REMARK   39  A    between atoms: _92  and  _94
REMARK   40  A    between atoms: _94  and  _95
REMARK   41  A    between atoms: _94  and  _97
REMARK   42  A    between atoms: _97  and  _98
REMARK   43  A    between atoms: _101  and  _103
REMARK   44  A    between atoms: _103  and  _104
REMARK   45  A    between atoms: _103  and  _106
REMARK   46  A    between atoms: _106  and  _107
REMARK   47  A    between atoms: _107  and  _108
REMARK   48  A    between atoms: _108  and  _109
REMARK   49  A    between atoms: _109  and  _110
REMARK   50  A    between atoms: _114  and  _116
REMARK   51  A    between atoms: _116  and  _117
REMARK   52  A    between atoms: _116  and  _119
REMARK   53  A    between atoms: _119  and  _120
REMARK   54  A    between atoms: _123  and  _125
REMARK   55  A    between atoms: _125  and  _126
REMARK   56  A    between atoms: _125  and  _128
REMARK   57  A    between atoms: _128  and  _129
REMARK   58  A    between atoms: _134  and  _135
REMARK   59  A    between atoms: _137  and  _139
REMARK   60  A    between atoms: _139  and  _140
REMARK   61  A    between atoms: _139  and  _142
REMARK   62  A    between atoms: _146  and  _147
REMARK   63  A    between atoms: _152  and  _154
REMARK   64  A    between atoms: _154  and  _155
REMARK   65  A    between atoms: _157  and  _159
REMARK   66  A    between atoms: _159  and  _160
REMARK   67  A    between atoms: _159  and  _162
REMARK   68  A    between atoms: _162  and  _163
REMARK   69  A    between atoms: _166  and  _168
REMARK   70  A    between atoms: _168  and  _169
REMARK   71  A    between atoms: _168  and  _171
REMARK   72  A    between atoms: _171  and  _172
REMARK   73  A    between atoms: _175  and  _177
REMARK   74  A    between atoms: _177  and  _178
REMARK   75  A    between atoms: _177  and  _180
REMARK   76  A    between atoms: _180  and  _181
REMARK   77  A    between atoms: _186  and  _188
REMARK   78  A    between atoms: _188  and  _189
REMARK   79  A    between atoms: _188  and  _191
REMARK   80  A    between atoms: _191  and  _192
REMARK   81  A    between atoms: _195  and  _197
REMARK   82  A    between atoms: _197  and  _198
REMARK   83  A    between atoms: _197  and  _200
REMARK   84  A    between atoms: _203  and  _205
REMARK   85  A    between atoms: _205  and  _206
REMARK   86  A    between atoms: _205  and  _208
REMARK   87  A    between atoms: _208  and  _209
REMARK   88  A    between atoms: _209  and  _210
REMARK   89  A    between atoms: _215  and  _217
REMARK   90  A    between atoms: _217  and  _218
REMARK   91  A    between atoms: _217  and  _220
REMARK   92  A    between atoms: _220  and  _221
REMARK   93  A    between atoms: _224  and  _226
REMARK   94  A    between atoms: _226  and  _227
REMARK   95  A    between atoms: _226  and  _229
REMARK   96  A    between atoms: _229  and  _230
REMARK   97  A    between atoms: _233  and  _235
REMARK   98  A    between atoms: _235  and  _236
REMARK   99  A    between atoms: _235  and  _238
REMARK  100  A    between atoms: _238  and  _239
REMARK  101  A    between atoms: _242  and  _243
REMARK  102  A    between atoms: _248  and  _250
REMARK  103  A    between atoms: _250  and  _251
REMARK  104  A    between atoms: _254  and  _256
REMARK  105  A    between atoms: _256  and  _257
REMARK  106  A    between atoms: _256  and  _259
REMARK  107  A    between atoms: _259  and  _260
REMARK  108  A    between atoms: _265  and  _266
REMARK  109  A    between atoms: _268  and  _270
REMARK  110  A    between atoms: _270  and  _271
REMARK  111  A    between atoms: _270  and  _273
REMARK  112  A    between atoms: _273  and  _274
REMARK  113  A    between atoms: _274  and  _275
REMARK  114  A    between atoms: _275  and  _276
REMARK  115  A    between atoms: _276  and  _277
REMARK  116  A    between atoms: _281  and  _283
REMARK  117  A    between atoms: _283  and  _284
REMARK  118  A    between atoms: _283  and  _286
REMARK  119  A    between atoms: _286  and  _287
REMARK  120  A    between atoms: _290  and  _292
REMARK  121  A    between atoms: _292  and  _293
REMARK  122  A    between atoms: _292  and  _295
REMARK  123  A    between atoms: _295  and  _296
REMARK  124  A    between atoms: _298  and  _300
REMARK  125  A    between atoms: _300  and  _301
REMARK  126  A    between atoms: _300  and  _303
REMARK  127  A    between atoms: _303  and  _304
REMARK  128  A    between atoms: _304  and  _419
REMARK  129  A    between atoms: _305  and  _307
REMARK  130  A    between atoms: _307  and  _308
REMARK  131  A    between atoms: _307  and  _310
REMARK  132  A    between atoms: _310  and  _311
REMARK  133  A    between atoms: _311  and  _312
REMARK  134  A    between atoms: _312  and  _313
REMARK  135  A    between atoms: _313  and  _314
REMARK  136  A    between atoms: _318  and  _320
REMARK  137  A    between atoms: _320  and  _321
REMARK  138  A    between atoms: _323  and  _325
REMARK  139  A    between atoms: _325  and  _326
REMARK  140  A    between atoms: _325  and  _328
REMARK  141  A    between atoms: _328  and  _329
REMARK  142  A    between atoms: _332  and  _334
REMARK  143  A    between atoms: _334  and  _335
REMARK  144  A    between atoms: _334  and  _337
REMARK  145  A    between atoms: _337  and  _338
REMARK  146  A    between atoms: _340  and  _342
REMARK  147  A    between atoms: _342  and  _343
REMARK  148  A    between atoms: _345  and  _347
REMARK  149  A    between atoms: _347  and  _348
REMARK  150  A    between atoms: _350  and  _352
REMARK  151  A    between atoms: _352  and  _353
REMARK  152  A    between atoms: _352  and  _355
REMARK  153  A    between atoms: _355  and  _356
REMARK  154  A    between atoms: _359  and  _361
REMARK  155  A    between atoms: _361  and  _362
REMARK  156  A    between atoms: _361  and  _364
REMARK  157  A    between atoms: _367  and  _369
REMARK  158  A    between atoms: _369  and  _370
REMARK  159  A    between atoms: _369  and  _372
REMARK  160  A    between atoms: _372  and  _373
REMARK  161  A    between atoms: _375  and  _377
REMARK  162  A    between atoms: _377  and  _378
REMARK  163  A    between atoms: _377  and  _380
REMARK  164  A    between atoms: _380  and  _381
REMARK  165  A    between atoms: _391  and  _393
REMARK  166  A    between atoms: _393  and  _394
REMARK  167  A    between atoms: _396  and  _398
REMARK  168  A    between atoms: _398  and  _399
REMARK  169  A    between atoms: _398  and  _401
REMARK  170  A    between atoms: _401  and  _402
REMARK  171  A    between atoms: _402  and  _403
REMARK  172  A    between atoms: _408  and  _410
REMARK  173  A    between atoms: _410  and  _411
REMARK  174  A    between atoms: _413  and  _415
REMARK  175  A    between atoms: _415  and  _416
REMARK  176  A    between atoms: _415  and  _418
REMARK  177  A    between atoms: _418  and  _419
REMARK  178  A    between atoms: _420  and  _422
REMARK  179  A    between atoms: _422  and  _423
REMARK  180  A    between atoms: _426  and  _428
REMARK  181  A    between atoms: _428  and  _429
REMARK  182  A    between atoms: _428  and  _431
REMARK  183  A    between atoms: _431  and  _432
REMARK  184  A    between atoms: _435  and  _437
REMARK  185  A    between atoms: _437  and  _438
REMARK  186  A    between atoms: _437  and  _440
REMARK  187  A    between atoms: _440  and  _441
REMARK  188  A    between atoms: _446  and  _448
REMARK  189  A    between atoms: _448  and  _449
REMARK  190  A    between atoms: _448  and  _451
REMARK  191  A    between atoms: _451  and  _452
REMARK  192  A    between atoms: _458  and  _460
REMARK  193  A    between atoms: _460  and  _461
REMARK  194  A    between atoms: _463  and  _465
REMARK  195  A    between atoms: _465  and  _466
REMARK  196  A    between atoms: _465  and  _468
REMARK  197  A    between atoms: _471  and  _473
REMARK  198  A    between atoms: _473  and  _474
REMARK  199  A    between atoms: _473  and  _476
REMARK  200  A    between atoms: _476  and  _477
REMARK  201  A    between atoms: _482  and  _483
REMARK                            x       y       z     vdW  Elec       q    Type
REMARK                         _______ _______ _______ _____ _____    ______ ____
ROOT
ATOM      1  CG  TYR A   1      15.371  26.974  38.193  0.00  0.00    -0.020 A 
ATOM      2  CD2 TYR A   1      15.839  25.954  39.020  0.00  0.00    -0.001 A 
ATOM      3  CE2 TYR A   1      16.773  25.021  38.565  0.00  0.00    +0.036 A 
ATOM      4  CZ  TYR A   1      17.287  25.134  37.289  0.00  0.00    +0.134 A 
ATOM      5  CE1 TYR A   1      16.837  26.139  36.447  0.00  0.00    +0.036 A 
ATOM      6  CD1 TYR A   1      15.891  27.057  36.906  0.00  0.00    -0.001 A 
ENDROOT
BRANCH   4   7
ATOM      7  OH  TYR A   1      18.235  24.248  36.848  0.00  0.00    -0.506 OA
ATOM      8  HH  TYR A   1      18.490  24.474  35.918  0.00  0.00    +0.292 HD
ENDBRANCH   4   7
BRANCH   1   9
ATOM      9  CB  TYR A   1      14.288  27.928  38.662  0.00  0.00    +0.051 C 
BRANCH   9  10
ATOM     10  CA  TYR A   1      12.847  27.490  38.251  0.00  0.00    +0.137 C 
BRANCH  10  11
ATOM     11  N   TYR A   1      12.777  27.319  36.801  0.00  0.00    -0.239 NA
ATOM     12  H   TYR A   1      12.800  28.182  36.222  0.00  0.00    +0.142 HD
ENDBRANCH  10  11
BRANCH  10  13
ATOM     13  C   TYR A   1      11.841  28.540  38.704  0.00  0.00    +0.224 C 
ATOM     14  O   TYR A   1      11.628  29.548  38.018  0.00  0.00    -0.287 OA
ENDBRANCH  10  13
ENDBRANCH   9  10
ENDBRANCH   1   9
TORSDOF 5
REMARK  Name = ../refined-set-2016/4x8v/4x8v_pocket.pdb
REMARK  201 active torsions:
REMARK  status: ('A' for Active; 'I' for Inactive)
REMARK    1  A    between atoms: _1  and  _3
REMARK    2  A    between atoms: _3  and  _4
REMARK    3  A    between atoms: _3  and  _6
REMARK    4  A    between atoms: _9  and  _11
REMARK    5  A    between atoms: _11  and  _12
REMARK    6  A    between atoms: _11  and  _14
REMARK    7  A    between atoms: _17  and  _19
REMARK    8  A    between atoms: _19  and  _20
REMARK    9  A    between atoms: _19  and  _22
REMARK   10  A    between atoms: _22  and  _23
REMARK   11  A    between atoms: _23  and  _24
REMARK   12  A    between atoms: _29  and  _31
REMARK   13  A    between atoms: _31  and  _32
REMARK   14  A    between atoms: _31  and  _34
REMARK   15  A    between atoms: _34  and  _35
REMARK   16  A    between atoms: _38  and  _40
REMARK   17  A    between atoms: _40  and  _41
REMARK   18  A    between atoms: _40  and  _43
REMARK   19  A    between atoms: _43  and  _44
REMARK   20  A    between atoms: _44  and  _79
REMARK   21  A    between atoms: _45  and  _47
REMARK   22  A    between atoms: _47  and  _48
REMARK   23  A    between atoms: _50  and  _52
REMARK   24  A    between atoms: _52  and  _53
REMARK   25  A    between atoms: _56  and  _58
REMARK   26  A    between atoms: _58  and  _59
REMARK   27  A    between atoms: _62  and  _64
REMARK   28  A    between atoms: _64  and  _65
REMARK   29  A    between atoms: _64  and  _67
REMARK   30  A    between atoms: _67  and  _68
REMARK   31  A    between atoms: _73  and  _75
REMARK   32  A    between atoms: _75  and  _76
REMARK   33  A    between atoms: _75  and  _78
REMARK   34  A    between atoms: _78  and  _79
REMARK   35  A    between atoms: _80  and  _82
REMARK   36  A    between atoms: _82  and  _83
REMARK   37  A    between atoms: _82  and  _85
REMARK   38  A    between atoms: _85  and  _86
REMARK   39  A    between atoms: _92  and  _94
REMARK   40  A    between atoms: _94  and  _95
REMARK   41  A    between atoms: _94  and  _97
REMARK   42  A    between atoms: _97  and  _98
REMARK   43  A    between atoms: _101  and  _103
REMARK   44  A    between atoms: _103  and  _104
REMARK   45  A    between atoms: _103  and  _106
REMARK   46  A    between atoms: _106  and  _107
REMARK   47  A    between atoms: _107  and  _108
REMARK   48  A    between atoms: _108  and  _109
REMARK   49  A    between atoms: _109  and  _110
REMARK   50  A    between atoms: _114  and  _116
REMARK   51  A    between atoms: _116  and  _117
REMARK   52  A    between atoms: _116  and  _119
REMARK   53  A    between atoms: _119  and  _120
REMARK   54  A    between atoms: _123  and  _125
REMARK   55  A    between atoms: _125  and  _126
REMARK   56  A    between atoms: _125  and  _128
REMARK   57  A    between atoms: _128  and  _129
REMARK   58  A    between atoms: _134  and  _135
REMARK   59  A    between atoms: _137  and  _139
REMARK   60  A    between atoms: _139  and  _140
REMARK   61  A    between atoms: _139  and  _142
REMARK   62  A    between atoms: _146  and  _147
REMARK   63  A    between atoms: _152  and  _154
REMARK   64  A    between atoms: _154  and  _155
REMARK   65  A    between atoms: _157  and  _159
REMARK   66  A    between atoms: _159  and  _160
REMARK   67  A    between atoms: _159  and  _162
REMARK   68  A    between atoms: _162  and  _163
REMARK   69  A    between atoms: _166  and  _168
REMARK   70  A    between atoms: _168  and  _169
REMARK   71  A    between atoms: _168  and  _171
REMARK   72  A    between atoms: _171  and  _172
REMARK   73  A    between atoms: _175  and  _177
REMARK   74  A    between atoms: _177  and  _178
REMARK   75  A    between atoms: _177  and  _180
REMARK   76  A    between atoms: _180  and  _181
REMARK   77  A    between atoms: _186  and  _188
REMARK   78  A    between atoms: _188  and  _189
REMARK   79  A    between atoms: _188  and  _191
REMARK   80  A    between atoms: _191  and  _192
REMARK   81  A    between atoms: _195  and  _197
REMARK   82  A    between atoms: _197  and  _198
REMARK   83  A    between atoms: _197  and  _200
REMARK   84  A    between atoms: _203  and  _205
REMARK   85  A    between atoms: _205  and  _206
REMARK   86  A    between atoms: _205  and  _208
REMARK   87  A    between atoms: _208  and  _209
REMARK   88  A    between atoms: _209  and  _210
REMARK   89  A    between atoms: _215  and  _217
REMARK   90  A    between atoms: _217  and  _218
REMARK   91  A    between atoms: _217  and  _220
REMARK   92  A    between atoms: _220  and  _221
REMARK   93  A    between atoms: _224  and  _226
REMARK   94  A    between atoms: _226  and  _227
REMARK   95  A    between atoms: _226  and  _229
REMARK   96  A    between atoms: _229  and  _230
REMARK   97  A    between atoms: _233  and  _235
REMARK   98  A    between atoms: _235  and  _236
REMARK   99  A    between atoms: _235  and  _238
REMARK  100  A    between atoms: _238  and  _239
REMARK  101  A    between atoms: _242  and  _243
REMARK  102  A    between atoms: _248  and  _250
REMARK  103  A    between atoms: _250  and  _251
REMARK  104  A    between atoms: _254  and  _256
REMARK  105  A    between atoms: _256  and  _257
REMARK  106  A    between atoms: _256  and  _259
REMARK  107  A    between atoms: _259  and  _260
REMARK  108  A    between atoms: _265  and  _266
REMARK  109  A    between atoms: _268  and  _270
REMARK  110  A    between atoms: _270  and  _271
REMARK  111  A    between atoms: _270  and  _273
REMARK  112  A    between atoms: _273  and  _274
REMARK  113  A    between atoms: _274  and  _275
REMARK  114  A    between atoms: _275  and  _276
REMARK  115  A    between atoms: _276  and  _277
REMARK  116  A    between atoms: _281  and  _283
REMARK  117  A    between atoms: _283  and  _284
REMARK  118  A    between atoms: _283  and  _286
REMARK  119  A    between atoms: _286  and  _287
REMARK  120  A    between atoms: _290  and  _292
REMARK  121  A    between atoms: _292  and  _293
REMARK  122  A    between atoms: _292  and  _295
REMARK  123  A    between atoms: _295  and  _296
REMARK  124  A    between atoms: _298  and  _300
REMARK  125  A    between atoms: _300  and  _301
REMARK  126  A    between atoms: _300  and  _303
REMARK  127  A    between atoms: _303  and  _304
REMARK  128  A    between atoms: _304  and  _419
REMARK  129  A    between atoms: _305  and  _307
REMARK  130  A    between atoms: _307  and  _308
REMARK  131  A    between atoms: _307  and  _310
REMARK  132  A    between atoms: _310  and  _311
REMARK  133  A    between atoms: _311  and  _312
REMARK  134  A    between atoms: _312  and  _313
REMARK  135  A    between atoms: _313  and  _314
REMARK  136  A    between atoms: _318  and  _320
REMARK  137  A    between atoms: _320  and  _321
REMARK  138  A    between atoms: _323  and  _325
REMARK  139  A    between atoms: _325  and  _326
REMARK  140  A    between atoms: _325  and  _328
REMARK  141  A    between atoms: _328  and  _329
REMARK  142  A    between atoms: _332  and  _334
REMARK  143  A    between atoms: _334  and  _335
REMARK  144  A    between atoms: _334  and  _337
REMARK  145  A    between atoms: _337  and  _338
REMARK  146  A    between atoms: _340  and  _342
REMARK  147  A    between atoms: _342  and  _343
REMARK  148  A    between atoms: _345  and  _347
REMARK  149  A    between atoms: _347  and  _348
REMARK  150  A    between atoms: _350  and  _352
REMARK  151  A    between atoms: _352  and  _353
REMARK  152  A    between atoms: _352  and  _355
REMARK  153  A    between atoms: _355  and  _356
REMARK  154  A    between atoms: _359  and  _361
REMARK  155  A    between atoms: _361  and  _362
REMARK  156  A    between atoms: _361  and  _364
REMARK  157  A    between atoms: _367  and  _369
REMARK  158  A    between atoms: _369  and  _370
REMARK  159  A    between atoms: _369  and  _372
REMARK  160  A    between atoms: _372  and  _373
REMARK  161  A    between atoms: _375  and  _377
REMARK  162  A    between atoms: _377  and  _378
REMARK  163  A    between atoms: _377  and  _380
REMARK  164  A    between atoms: _380  and  _381
REMARK  165  A    between atoms: _391  and  _393
REMARK  166  A    between atoms: _393  and  _394
REMARK  167  A    between atoms: _396  and  _398
REMARK  168  A    between atoms: _398  and  _399
REMARK  169  A    between atoms: _398  and  _401
REMARK  170  A    between atoms: _401  and  _402
REMARK  171  A    between atoms: _402  and  _403
REMARK  172  A    between atoms: _408  and  _410
REMARK  173  A    between atoms: _410  and  _411
REMARK  174  A    between atoms: _413  and  _415
REMARK  175  A    between atoms: _415  and  _416
REMARK  176  A    between atoms: _415  and  _418
REMARK  177  A    between atoms: _418  and  _419
REMARK  178  A    between atoms: _420  and  _422
REMARK  179  A    between atoms: _422  and  _423
REMARK  180  A    between atoms: _426  and  _428
REMARK  181  A    between atoms: _428  and  _429
REMARK  182  A    between atoms: _428  and  _431
REMARK  183  A    between atoms: _431  and  _432
REMARK  184  A    between atoms: _435  and  _437
REMARK  185  A    between atoms: _437  and  _438
REMARK  186  A    between atoms: _437  and  _440
REMARK  187  A    between atoms: _440  and  _441
REMARK  188  A    between atoms: _446  and  _448
REMARK  189  A    between atoms: _448  and  _449
REMARK  190  A    between atoms: _448  and  _451
REMARK  191  A    between atoms: _451  and  _452
REMARK  192  A    between atoms: _458  and  _460
REMARK  193  A    between atoms: _460  and  _461
REMARK  194  A    between atoms: _463  and  _465
REMARK  195  A    between atoms: _465  and  _466
REMARK  196  A    between atoms: _465  and  _468
REMARK  197  A    between atoms: _471  and  _473
REMARK  198  A    between atoms: _473  and  _474
REMARK  199  A    between atoms: _473  and  _476
REMARK  200  A    between atoms: _476  and  _477
REMARK  201  A    between atoms: _482  and  _483
REMARK                            x       y       z     vdW  Elec       q    Type
REMARK                         _______ _______ _______ _____ _____    ______ ____
ROOT
ATOM      1  CB  SER A   8      12.395  37.362  32.248  0.00  0.00    +0.098 C 
ENDROOT
BRANCH   1   2
ATOM      2  SG  SER A   8      11.690  37.812  30.645  0.00  0.00    -0.080 S 
BRANCH   2   3
ATOM      3  SG  TRP A   4      13.270  38.411  29.500  0.00  0.00    -0.080 S 
BRANCH   3   4
ATOM      4  CB  TRP A   4      14.183  36.915  28.985  0.00  0.00    +0.098 C 
BRANCH   4   5
ATOM      5  CA  TRP A   4      13.296  35.777  28.481  0.00  0.00    +0.160 C 
BRANCH   5   8
ATOM      6  C   SER A   3      13.884  33.665  29.493  0.00  0.00    +0.243 C 
ATOM      7  O   SER A   3      13.211  33.950  30.495  0.00  0.00    -0.273 OA
ATOM      8  N   TRP A   4      14.016  34.511  28.468  0.00  0.00    -0.296 N 
ATOM      9  H   TRP A   4      14.630  34.267  27.665  0.00  0.00    +0.150 HD
BRANCH   6  10
ATOM     10  CA  SER A   3      14.674  32.324  29.458  0.00  0.00    +0.178 C 
BRANCH  10  13
ATOM     11  C   VAL A   2      15.428  31.986  31.774  0.00  0.00    +0.241 C 
ATOM     12  O   VAL A   2      16.573  32.419  31.574  0.00  0.00    -0.273 OA
ATOM     13  N   SER A   3      14.513  31.825  30.810  0.00  0.00    -0.295 N 
ATOM     14  H   SER A   3      13.638  31.314  31.044  0.00  0.00    +0.150 HD
BRANCH  11  15
ATOM     15  CA  VAL A   2      14.964  31.614  33.166  0.00  0.00    +0.160 C 
BRANCH  15  18
ATOM     16  C   ILE A   1      15.964  31.192  35.345  0.00  0.00    +0.238 C 
ATOM     17  O   ILE A   1      14.973  30.560  35.719  0.00  0.00    -0.274 OA
ATOM     18  N   VAL A   2      16.061  31.714  34.131  0.00  0.00    -0.297 N 
ATOM     19  H   VAL A   2      16.936  32.206  33.857  0.00  0.00    +0.150 HD
BRANCH  16  20
ATOM     20  CA  ILE A   1      17.162  31.351  36.261  0.00  0.00    +0.145 C 
BRANCH  20  21
ATOM     21  N   ILE A   1      16.770  31.816  37.594  0.00  0.00    -0.238 NA
ATOM     22  H   ILE A   1      15.878  31.470  38.001  0.00  0.00    +0.142 HD
ENDBRANCH  20  21
BRANCH  20  23
ATOM     23  CB  ILE A   1      17.893  29.990  36.371  0.00  0.00    +0.026 C 
BRANCH  23  24
ATOM     24  CG  ILE A   1      19.237  29.995  37.114  0.00  0.00    -0.000 C 
BRANCH  24  25
ATOM     25  CD  ILE A   1      19.617  28.596  37.609  0.00  0.00    -0.024 C 
BRANCH  25  26
ATOM     26  CE  ILE A   1      20.216  28.636  38.994  0.00  0.00    -0.086 C 
BRANCH  26  27
ATOM     27  NZ  ILE A   1      19.276  28.114  40.021  0.00  0.00    +0.380 N 
ATOM     28  HZ1 ILE A   1      19.727  28.159  40.957  0.00  0.00    -0.089 HD
ATOM     29  HZ2 ILE A   1      18.411  28.692  40.023  0.00  0.00    -0.089 HD
ATOM     30  HZ3 ILE A   1      19.035  27.127  39.799  0.00  0.00    -0.089 HD
ENDBRANCH  26  27
ENDBRANCH  25  26
ENDBRANCH  24  25
ENDBRANCH  23  24
ENDBRANCH  20  23
ENDBRANCH  16  20
ENDBRANCH  15  18
BRANCH  15  31
ATOM     31  CB  VAL A   2      13.815  32.589  33.547  0.00  0.00    +0.143 C 
BRANCH  31  32
ATOM     32  CG  VAL A   2      12.385  32.077  33.367  0.00  0.00    +0.367 C 
ATOM     33  OD2 VAL A   2      11.475  32.630  34.024  0.00  0.00    -0.246 OA
ATOM     34  OD1 VAL A   2      12.172  31.132  32.544  0.00  0.00    -0.246 OA
ENDBRANCH  31  32
ENDBRANCH  15  31
ENDBRANCH  11  15
ENDBRANCH  10  13
BRANCH  10  35
ATOM     35  CB  SER A   3      14.120  31.342  28.425  0.00  0.00    +0.166 C 
BRANCH  35  36
ATOM     36  OG  SER A   3      12.787  30.963  28.717  0.00  0.00    -0.380 OA
ATOM     37  H   SER A   3      12.756  30.528  29.606  0.00  0.00    +0.211 HD
ENDBRANCH  35  36
ENDBRANCH  10  35
ENDBRANCH   6  10
ENDBRANCH   5   8
BRANCH   5  38
ATOM     38  C   TRP A   4      12.700  36.073  27.128  0.00  0.00    +0.242 C 
ATOM     39  N   LYS A   5      11.936  37.184  27.020  0.00  0.00    -0.297 N 
ATOM     40  H   LYS A   5      11.811  37.782  27.862  0.00  0.00    +0.150 HD
ATOM     41  O   TRP A   4      12.938  35.312  26.181  0.00  0.00    -0.273 OA
BRANCH  39  42
ATOM     42  CA  LYS A   5      11.281  37.583  25.783  0.00  0.00    +0.149 C 
BRANCH  42  43
ATOM     43  C   LYS A   5      12.201  37.635  24.577  0.00  0.00    +0.241 C 
ATOM     44  N   GLY A   6      13.443  38.079  24.761  0.00  0.00    -0.295 N 
ATOM     45  H   GLY A   6      13.729  38.334  25.728  0.00  0.00    +0.150 HD
ATOM     46  O   LYS A   5      11.759  37.275  23.501  0.00  0.00    -0.273 OA
BRANCH  44  47
ATOM     47  CA  GLY A   6      14.428  38.231  23.696  0.00  0.00    +0.176 C 
BRANCH  47  48
ATOM     48  C   GLY A   6      14.993  36.921  23.200  0.00  0.00    +0.243 C 
ATOM     49  N   ASP A   7      14.806  35.842  23.997  0.00  0.00    -0.296 N 
ATOM     50  H   ASP A   7      14.329  35.998  24.908  0.00  0.00    +0.150 HD
ATOM     51  O   GLY A   6      15.614  36.879  22.131  0.00  0.00    -0.273 OA
BRANCH  49  52
ATOM     52  CA  ASP A   7      15.221  34.475  23.681  0.00  0.00    +0.160 C 
BRANCH  52  53
ATOM     53  C   ASP A   7      14.086  33.733  22.929  0.00  0.00    +0.241 C 
ATOM     54  N   SER A   8      12.899  34.368  22.800  0.00  0.00    -0.295 N 
ATOM     55  H   SER A   8      12.819  35.305  23.244  0.00  0.00    +0.150 HD
ATOM     56  O   ASP A   7      14.296  32.607  22.483  0.00  0.00    -0.273 OA
BRANCH  54  57
ATOM     57  CA  SER A   8      11.706  33.865  22.092  0.00  0.00    +0.178 C 
BRANCH  57  58
ATOM     58  C   SER A   8      12.079  33.227  20.770  0.00  0.00    +0.243 C 
ATOM     59  N   GLY A   9      11.490  32.057  20.515  0.00  0.00    -0.295 N 
ATOM     60  H   GLY A   9      10.818  31.688  21.217  0.00  0.00    +0.150 HD
ATOM     61  O   SER A   8      12.932  33.761  20.049  0.00  0.00    -0.273 OA
BRANCH  59  62
ATOM     62  CA  GLY A   9      11.728  31.261  19.313  0.00  0.00    +0.176 C 
BRANCH  62  63
ATOM     63  C   GLY A   9      12.961  30.377  19.358  0.00  0.00    +0.243 C 
ATOM     64  N   GLY A  10      13.817  30.581  20.358  0.00  0.00    -0.296 N 
ATOM     65  H   GLY A  10      13.582  31.311  21.060  0.00  0.00    +0.150 HD
ATOM     66  O   GLY A   9      13.124  29.519  18.497  0.00  0.00    -0.273 OA
BRANCH  64  67
ATOM     67  CA  GLY A  10      15.060  29.846  20.528  0.00  0.00    +0.163 C 
BRANCH  67  68
ATOM     68  C   GLY A  10      14.892  28.394  20.936  0.00  0.00    +0.229 C 
ATOM     69  O   GLY A  10      13.818  28.005  21.402  0.00  0.00    -0.286 OA
ENDBRANCH  67  68
ENDBRANCH  64  67
ENDBRANCH  62  63
ENDBRANCH  59  62
ENDBRANCH  57  58
BRANCH  57  70
ATOM     70  CB  SER A   8      10.705  34.990  21.826  0.00  0.00    +0.166 C 
BRANCH  70  71
ATOM     71  OG  SER A   8       9.970  35.311  22.998  0.00  0.00    -0.380 OA
ATOM     72  H   SER A   8      10.595  35.604  23.708  0.00  0.00    +0.211 HD
ENDBRANCH  70  71
ENDBRANCH  57  70
ENDBRANCH  54  57
ENDBRANCH  52  53
BRANCH  52  73
ATOM     73  CB  ASP A   7      15.609  33.715  24.969  0.00  0.00    +0.143 C 
BRANCH  73  74
ATOM     74  CG  ASP A   7      16.678  34.386  25.822  0.00  0.00    +0.367 C 
ATOM     75  OD2 ASP A   7      16.417  34.611  27.043  0.00  0.00    -0.246 OA
ATOM     76  OD1 ASP A   7      17.808  34.589  25.310  0.00  0.00    -0.246 OA
ENDBRANCH  73  74
ENDBRANCH  52  73
ENDBRANCH  49  52
ENDBRANCH  47  48
ENDBRANCH  44  47
ENDBRANCH  42  43
BRANCH  42  77
ATOM     77  CB  LYS A   5      10.497  38.892  25.943  0.00  0.00    +0.029 C 
BRANCH  77  78
ATOM     78  CG  LYS A   5      11.296  40.149  26.221  0.00  0.00    +0.000 C 
BRANCH  78  79
ATOM     79  CD  LYS A   5      10.367  41.298  26.560  0.00  0.00    -0.024 C 
BRANCH  79  80
ATOM     80  CE  LYS A   5      11.126  42.591  26.721  0.00  0.00    -0.086 C 
BRANCH  80  81
ATOM     81  NZ  LYS A   5      10.284  43.645  27.334  0.00  0.00    +0.380 N 
ATOM     82  HZ1 LYS A   5       9.967  43.331  28.273  0.00  0.00    -0.089 HD
ATOM     83  HZ2 LYS A   5      10.839  44.519  27.429  0.00  0.00    -0.089 HD
ATOM     84  HZ3 LYS A   5       9.457  43.822  26.729  0.00  0.00    -0.089 HD
ENDBRANCH  80  81
ENDBRANCH  79  80
ENDBRANCH  78  79
ENDBRANCH  77  78
ENDBRANCH  42  77
ENDBRANCH  39  42
ENDBRANCH   5  38
ENDBRANCH   4   5
ENDBRANCH   3   4
ENDBRANCH   2   3
ENDBRANCH   1   2
BRANCH   1  85
ATOM     85  CA  SER A   8      11.380  36.732  33.187  0.00  0.00    +0.160 C 
BRANCH  85  86
ATOM     86  N   SER A   8      10.146  37.500  33.174  0.00  0.00    -0.296 N 
ATOM     87  C   ASP A   7       8.989  37.054  33.663  0.00  0.00    +0.243 C 
ATOM     88  O   ASP A   7       8.855  35.932  34.167  0.00  0.00    -0.273 OA
ATOM     89  H   SER A   8      10.167  38.453  32.759  0.00  0.00    +0.150 HD
BRANCH  87  90
ATOM     90  CA  ASP A   7       7.792  37.966  33.544  0.00  0.00    +0.176 C 
BRANCH  90  91
ATOM     91  N   ASP A   7       6.653  37.115  33.247  0.00  0.00    -0.295 N 
ATOM     92  C   GLY A   6       5.730  36.752  34.125  0.00  0.00    +0.241 C 
ATOM     93  O   GLY A   6       5.695  37.170  35.286  0.00  0.00    -0.273 OA
ATOM     94  H   ASP A   7       6.555  36.765  32.273  0.00  0.00    +0.150 HD
BRANCH  92  95
ATOM     95  CA  GLY A   6       4.655  35.776  33.604  0.00  0.00    +0.149 C 
BRANCH  95  96
ATOM     96  N   GLY A   6       5.250  34.724  32.761  0.00  0.00    -0.297 N 
ATOM     97  H   GLY A   6       5.889  34.049  33.227  0.00  0.00    +0.150 HD
ATOM     98  C   LYS A   5       5.039  34.556  31.430  0.00  0.00    +0.243 C 
ATOM     99  O   LYS A   5       4.368  35.338  30.741  0.00  0.00    -0.273 OA
BRANCH  98 100
ATOM    100  CA  LYS A   5       5.714  33.359  30.790  0.00  0.00    +0.176 C 
BRANCH 100 101
ATOM    101  N   LYS A   5       5.731  33.451  29.337  0.00  0.00    -0.295 N 
ATOM    102  H   LYS A   5       5.358  34.322  28.908  0.00  0.00    +0.150 HD
ATOM    103  C   TRP A   4       6.185  32.510  28.516  0.00  0.00    +0.241 C 
ATOM    104  O   TRP A   4       6.634  31.442  28.898  0.00  0.00    -0.273 OA
BRANCH 103 105
ATOM    105  CA  TRP A   4       6.037  32.803  27.015  0.00  0.00    +0.153 C 
BRANCH 105 106
ATOM    106  N   TRP A   4       6.559  31.757  26.125  0.00  0.00    -0.297 N 
ATOM    107  H   TRP A   4       6.655  30.787  26.487  0.00  0.00    +0.150 HD
ATOM    108  C   SER A   3       6.917  32.020  24.850  0.00  0.00    +0.243 C 
ATOM    109  O   SER A   3       6.847  33.145  24.376  0.00  0.00    -0.273 OA
BRANCH 108 110
ATOM    110  CA  SER A   3       7.395  30.863  23.946  0.00  0.00    +0.178 C 
BRANCH 110 111
ATOM    111  N   SER A   3       8.706  30.296  24.291  0.00  0.00    -0.295 N 
ATOM    112  H   SER A   3       8.790  29.781  25.191  0.00  0.00    +0.150 HD
ATOM    113  C   VAL A   2       9.804  30.397  23.523  0.00  0.00    +0.241 C 
ATOM    114  O   VAL A   2       9.825  30.985  22.445  0.00  0.00    -0.273 OA
BRANCH 113 115
ATOM    115  CA  VAL A   2      11.033  29.623  23.978  0.00  0.00    +0.148 C 
BRANCH 115 116
ATOM    116  N   VAL A   2      11.200  28.526  22.989  0.00  0.00    -0.297 N 
ATOM    117  C   ILE A   1      10.276  27.577  22.725  0.00  0.00    +0.238 C 
ATOM    118  O   ILE A   1       9.195  27.520  23.298  0.00  0.00    -0.274 OA
ATOM    119  H   VAL A   2      12.095  28.486  22.461  0.00  0.00    +0.150 HD
BRANCH 117 120
ATOM    120  CA  ILE A   1      10.582  26.559  21.621  0.00  0.00    +0.145 C 
BRANCH 120 121
ATOM    121  CB  ILE A   1       9.765  26.860  20.313  0.00  0.00    +0.025 C 
ATOM    122  CG2 ILE A   1      10.015  28.287  19.783  0.00  0.00    +0.002 C 
BRANCH 121 123
ATOM    123  CG1 ILE A   1      10.031  25.832  19.209  0.00  0.00    +0.002 C 
ATOM    124  CD1 ILE A   1       8.930  25.784  18.232  0.00  0.00    +0.000 C 
ENDBRANCH 121 123
ENDBRANCH 120 121
BRANCH 120 125
ATOM    125  N   ILE A   1      10.256  25.244  22.157  0.00  0.00    -0.238 NA
ATOM    126  H   ILE A   1       9.302  25.091  22.543  0.00  0.00    +0.142 HD
ENDBRANCH 120 125
ENDBRANCH 117 120
ENDBRANCH 115 116
BRANCH 115 127
ATOM    127  CB  VAL A   2      12.311  30.520  24.101  0.00  0.00    +0.027 C 
ATOM    128  CG2 VAL A   2      12.145  31.587  25.172  0.00  0.00    +0.002 C 
ATOM    129  CG1 VAL A   2      13.555  29.683  24.387  0.00  0.00    +0.002 C 
ENDBRANCH 115 127
ENDBRANCH 113 115
ENDBRANCH 110 111
BRANCH 110 130
ATOM    130  CB  SER A   3       6.355  29.746  23.903  0.00  0.00    +0.166 C 
BRANCH 130 131
ATOM    131  OG  SER A   3       5.070  30.221  23.545  0.00  0.00    -0.380 OA
ATOM    132  H   SER A   3       4.432  29.464  23.530  0.00  0.00    +0.211 HD
ENDBRANCH 130 131
ENDBRANCH 110 130
ENDBRANCH 108 110
ENDBRANCH 105 106
BRANCH 105 133
ATOM    133  CB  TRP A   4       4.547  33.044  26.698  0.00  0.00    +0.057 C 
BRANCH 133 134
ATOM    134  CG  TRP A   4       3.651  31.888  26.997  0.00  0.00    -0.002 A 
ATOM    135  CD2 TRP A   4       2.811  31.732  28.148  0.00  0.00    +0.013 A 
ATOM    136  CE3 TRP A   4       2.546  32.525  29.280  0.00  0.00    +0.001 A 
ATOM    137  CZ3 TRP A   4       1.670  32.049  30.240  0.00  0.00    +0.000 A 
ATOM    138  CH2 TRP A   4       1.039  30.805  30.089  0.00  0.00    +0.001 A 
ATOM    139  CZ2 TRP A   4       1.265  30.009  28.993  0.00  0.00    +0.017 A 
ATOM    140  CE2 TRP A   4       2.143  30.495  28.014  0.00  0.00    +0.056 A 
ATOM    141  NE1 TRP A   4       2.599  29.911  26.856  0.00  0.00    -0.352 N 
ATOM    142  HE1 TRP A   4       2.323  28.972  26.503  0.00  0.00    +0.166 HD
ATOM    143  CD1 TRP A   4       3.479  30.770  26.240  0.00  0.00    +0.068 A 
ENDBRANCH 133 134
ENDBRANCH 105 133
ENDBRANCH 103 105
ENDBRANCH 100 101
ENDBRANCH  98 100
ENDBRANCH  95  96
BRANCH  95 144
ATOM    144  CB  GLY A   6       3.922  35.110  34.775  0.00  0.00    +0.039 C 
BRANCH 144 145
ATOM    145  CG  GLY A   6       2.833  34.145  34.331  0.00  0.00    +0.087 C 
BRANCH 145 146
ATOM    146  CD  GLY A   6       1.465  34.696  34.608  0.00  0.00    +0.219 C 
ATOM    147  OE1 GLY A   6       0.832  34.344  35.612  0.00  0.00    -0.275 OA
ATOM    148  NE2 GLY A   6       0.989  35.585  33.737  0.00  0.00    -0.329 N 
ATOM    149 HE21 GLY A   6       0.052  36.011  33.888  0.00  0.00    +0.145 HD
ATOM    150 HE22 GLY A   6       1.554  35.853  32.906  0.00  0.00    +0.145 HD
ENDBRANCH 145 146
ENDBRANCH 144 145
ENDBRANCH  95 144
ENDBRANCH  92  95
ENDBRANCH  90  91
ENDBRANCH  87  90
ENDBRANCH  85  86
BRANCH  85 151
ATOM    151  C   SER A   8      11.914  36.586  34.588  0.00  0.00    +0.242 C 
ATOM    152  O   SER A   8      12.057  37.581  35.302  0.00  0.00    -0.273 OA
ATOM    153  N   GLY A   9      12.139  35.332  35.008  0.00  0.00    -0.297 N 
ATOM    154  H   GLY A   9      11.944  34.560  34.339  0.00  0.00    +0.150 HD
BRANCH 153 155
ATOM    155  CA  GLY A   9      12.637  34.966  36.334  0.00  0.00    +0.149 C 
ATOM    156  CB  GLY A   9      14.121  35.320  36.471  0.00  0.00    +0.031 C 
BRANCH 155 157
ATOM    157  C   GLY A   9      11.785  35.549  37.508  0.00  0.00    +0.241 C 
ATOM    158  O   GLY A   9      12.318  36.085  38.480  0.00  0.00    -0.273 OA
ATOM    159  N   GLY A  10      10.450  35.428  37.385  0.00  0.00    -0.296 N 
ATOM    160  H   GLY A  10      10.097  35.008  36.501  0.00  0.00    +0.150 HD
BRANCH 159 161
ATOM    161  CA  GLY A  10       9.444  35.829  38.372  0.00  0.00    +0.164 C 
BRANCH 161 162
ATOM    162  CB  GLY A  10       8.104  36.044  37.661  0.00  0.00    +0.136 C 
ATOM    163  CG2 GLY A  10       6.981  36.424  38.615  0.00  0.00    +0.034 C 
BRANCH 162 164
ATOM    164  OG1 GLY A  10       8.268  37.107  36.747  0.00  0.00    -0.382 OA
ATOM    165  HG1 GLY A  10       7.414  37.267  36.272  0.00  0.00    +0.210 HD
ENDBRANCH 162 164
ENDBRANCH 161 162
BRANCH 161 166
ATOM    166  C   GLY A  10       9.350  34.684  39.383  0.00  0.00    +0.229 C 
ATOM    167  O   GLY A  10       9.311  33.518  38.964  0.00  0.00    -0.286 OA
ENDBRANCH 161 166
ENDBRANCH 159 161
ENDBRANCH 155 157
ENDBRANCH 153 155
ENDBRANCH  85 151
ENDBRANCH   1  85
TORSDOF 75
REMARK  Name = ../refined-set-2016/4x8v/4x8v_pocket.pdb
REMARK  201 active torsions:
REMARK  status: ('A' for Active; 'I' for Inactive)
REMARK    1  A    between atoms: _1  and  _3
REMARK    2  A    between atoms: _3  and  _4
REMARK    3  A    between atoms: _3  and  _6
REMARK    4  A    between atoms: _9  and  _11
REMARK    5  A    between atoms: _11  and  _12
REMARK    6  A    between atoms: _11  and  _14
REMARK    7  A    between atoms: _17  and  _19
REMARK    8  A    between atoms: _19  and  _20
REMARK    9  A    between atoms: _19  and  _22
REMARK   10  A    between atoms: _22  and  _23
REMARK   11  A    between atoms: _23  and  _24
REMARK   12  A    between atoms: _29  and  _31
REMARK   13  A    between atoms: _31  and  _32
REMARK   14  A    between atoms: _31  and  _34
REMARK   15  A    between atoms: _34  and  _35
REMARK   16  A    between atoms: _38  and  _40
REMARK   17  A    between atoms: _40  and  _41
REMARK   18  A    between atoms: _40  and  _43
REMARK   19  A    between atoms: _43  and  _44
REMARK   20  A    between atoms: _44  and  _79
REMARK   21  A    between atoms: _45  and  _47
REMARK   22  A    between atoms: _47  and  _48
REMARK   23  A    between atoms: _50  and  _52
REMARK   24  A    between atoms: _52  and  _53
REMARK   25  A    between atoms: _56  and  _58
REMARK   26  A    between atoms: _58  and  _59
REMARK   27  A    between atoms: _62  and  _64
REMARK   28  A    between atoms: _64  and  _65
REMARK   29  A    between atoms: _64  and  _67
REMARK   30  A    between atoms: _67  and  _68
REMARK   31  A    between atoms: _73  and  _75
REMARK   32  A    between atoms: _75  and  _76
REMARK   33  A    between atoms: _75  and  _78
REMARK   34  A    between atoms: _78  and  _79
REMARK   35  A    between atoms: _80  and  _82
REMARK   36  A    between atoms: _82  and  _83
REMARK   37  A    between atoms: _82  and  _85
REMARK   38  A    between atoms: _85  and  _86
REMARK   39  A    between atoms: _92  and  _94
REMARK   40  A    between atoms: _94  and  _95
REMARK   41  A    between atoms: _94  and  _97
REMARK   42  A    between atoms: _97  and  _98
REMARK   43  A    between atoms: _101  and  _103
REMARK   44  A    between atoms: _103  and  _104
REMARK   45  A    between atoms: _103  and  _106
REMARK   46  A    between atoms: _106  and  _107
REMARK   47  A    between atoms: _107  and  _108
REMARK   48  A    between atoms: _108  and  _109
REMARK   49  A    between atoms: _109  and  _110
REMARK   50  A    between atoms: _114  and  _116
REMARK   51  A    between atoms: _116  and  _117
REMARK   52  A    between atoms: _116  and  _119
REMARK   53  A    between atoms: _119  and  _120
REMARK   54  A    between atoms: _123  and  _125
REMARK   55  A    between atoms: _125  and  _126
REMARK   56  A    between atoms: _125  and  _128
REMARK   57  A    between atoms: _128  and  _129
REMARK   58  A    between atoms: _134  and  _135
REMARK   59  A    between atoms: _137  and  _139
REMARK   60  A    between atoms: _139  and  _140
REMARK   61  A    between atoms: _139  and  _142
REMARK   62  A    between atoms: _146  and  _147
REMARK   63  A    between atoms: _152  and  _154
REMARK   64  A    between atoms: _154  and  _155
REMARK   65  A    between atoms: _157  and  _159
REMARK   66  A    between atoms: _159  and  _160
REMARK   67  A    between atoms: _159  and  _162
REMARK   68  A    between atoms: _162  and  _163
REMARK   69  A    between atoms: _166  and  _168
REMARK   70  A    between atoms: _168  and  _169
REMARK   71  A    between atoms: _168  and  _171
REMARK   72  A    between atoms: _171  and  _172
REMARK   73  A    between atoms: _175  and  _177
REMARK   74  A    between atoms: _177  and  _178
REMARK   75  A    between atoms: _177  and  _180
REMARK   76  A    between atoms: _180  and  _181
REMARK   77  A    between atoms: _186  and  _188
REMARK   78  A    between atoms: _188  and  _189
REMARK   79  A    between atoms: _188  and  _191
REMARK   80  A    between atoms: _191  and  _192
REMARK   81  A    between atoms: _195  and  _197
REMARK   82  A    between atoms: _197  and  _198
REMARK   83  A    between atoms: _197  and  _200
REMARK   84  A    between atoms: _203  and  _205
REMARK   85  A    between atoms: _205  and  _206
REMARK   86  A    between atoms: _205  and  _208
REMARK   87  A    between atoms: _208  and  _209
REMARK   88  A    between atoms: _209  and  _210
REMARK   89  A    between atoms: _215  and  _217
REMARK   90  A    between atoms: _217  and  _218
REMARK   91  A    between atoms: _217  and  _220
REMARK   92  A    between atoms: _220  and  _221
REMARK   93  A    between atoms: _224  and  _226
REMARK   94  A    between atoms: _226  and  _227
REMARK   95  A    between atoms: _226  and  _229
REMARK   96  A    between atoms: _229  and  _230
REMARK   97  A    between atoms: _233  and  _235
REMARK   98  A    between atoms: _235  and  _236
REMARK   99  A    between atoms: _235  and  _238
REMARK  100  A    between atoms: _238  and  _239
REMARK  101  A    between atoms: _242  and  _243
REMARK  102  A    between atoms: _248  and  _250
REMARK  103  A    between atoms: _250  and  _251
REMARK  104  A    between atoms: _254  and  _256
REMARK  105  A    between atoms: _256  and  _257
REMARK  106  A    between atoms: _256  and  _259
REMARK  107  A    between atoms: _259  and  _260
REMARK  108  A    between atoms: _265  and  _266
REMARK  109  A    between atoms: _268  and  _270
REMARK  110  A    between atoms: _270  and  _271
REMARK  111  A    between atoms: _270  and  _273
REMARK  112  A    between atoms: _273  and  _274
REMARK  113  A    between atoms: _274  and  _275
REMARK  114  A    between atoms: _275  and  _276
REMARK  115  A    between atoms: _276  and  _277
REMARK  116  A    between atoms: _281  and  _283
REMARK  117  A    between atoms: _283  and  _284
REMARK  118  A    between atoms: _283  and  _286
REMARK  119  A    between atoms: _286  and  _287
REMARK  120  A    between atoms: _290  and  _292
REMARK  121  A    between atoms: _292  and  _293
REMARK  122  A    between atoms: _292  and  _295
REMARK  123  A    between atoms: _295  and  _296
REMARK  124  A    between atoms: _298  and  _300
REMARK  125  A    between atoms: _300  and  _301
REMARK  126  A    between atoms: _300  and  _303
REMARK  127  A    between atoms: _303  and  _304
REMARK  128  A    between atoms: _304  and  _419
REMARK  129  A    between atoms: _305  and  _307
REMARK  130  A    between atoms: _307  and  _308
REMARK  131  A    between atoms: _307  and  _310
REMARK  132  A    between atoms: _310  and  _311
REMARK  133  A    between atoms: _311  and  _312
REMARK  134  A    between atoms: _312  and  _313
REMARK  135  A    between atoms: _313  and  _314
REMARK  136  A    between atoms: _318  and  _320
REMARK  137  A    between atoms: _320  and  _321
REMARK  138  A    between atoms: _323  and  _325
REMARK  139  A    between atoms: _325  and  _326
REMARK  140  A    between atoms: _325  and  _328
REMARK  141  A    between atoms: _328  and  _329
REMARK  142  A    between atoms: _332  and  _334
REMARK  143  A    between atoms: _334  and  _335
REMARK  144  A    between atoms: _334  and  _337
REMARK  145  A    between atoms: _337  and  _338
REMARK  146  A    between atoms: _340  and  _342
REMARK  147  A    between atoms: _342  and  _343
REMARK  148  A    between atoms: _345  and  _347
REMARK  149  A    between atoms: _347  and  _348
REMARK  150  A    between atoms: _350  and  _352
REMARK  151  A    between atoms: _352  and  _353
REMARK  152  A    between atoms: _352  and  _355
REMARK  153  A    between atoms: _355  and  _356
REMARK  154  A    between atoms: _359  and  _361
REMARK  155  A    between atoms: _361  and  _362
REMARK  156  A    between atoms: _361  and  _364
REMARK  157  A    between atoms: _367  and  _369
REMARK  158  A    between atoms: _369  and  _370
REMARK  159  A    between atoms: _369  and  _372
REMARK  160  A    between atoms: _372  and  _373
REMARK  161  A    between atoms: _375  and  _377
REMARK  162  A    between atoms: _377  and  _378
REMARK  163  A    between atoms: _377  and  _380
REMARK  164  A    between atoms: _380  and  _381
REMARK  165  A    between atoms: _391  and  _393
REMARK  166  A    between atoms: _393  and  _394
REMARK  167  A    between atoms: _396  and  _398
REMARK  168  A    between atoms: _398  and  _399
REMARK  169  A    between atoms: _398  and  _401
REMARK  170  A    between atoms: _401  and  _402
REMARK  171  A    between atoms: _402  and  _403
REMARK  172  A    between atoms: _408  and  _410
REMARK  173  A    between atoms: _410  and  _411
REMARK  174  A    between atoms: _413  and  _415
REMARK  175  A    between atoms: _415  and  _416
REMARK  176  A    between atoms: _415  and  _418
REMARK  177  A    between atoms: _418  and  _419
REMARK  178  A    between atoms: _420  and  _422
REMARK  179  A    between atoms: _422  and  _423
REMARK  180  A    between atoms: _426  and  _428
REMARK  181  A    between atoms: _428  and  _429
REMARK  182  A    between atoms: _428  and  _431
REMARK  183  A    between atoms: _431  and  _432
REMARK  184  A    between atoms: _435  and  _437
REMARK  185  A    between atoms: _437  and  _438
REMARK  186  A    between atoms: _437  and  _440
REMARK  187  A    between atoms: _440  and  _441
REMARK  188  A    between atoms: _446  and  _448
REMARK  189  A    between atoms: _448  and  _449
REMARK  190  A    between atoms: _448  and  _451
REMARK  191  A    between atoms: _451  and  _452
REMARK  192  A    between atoms: _458  and  _460
REMARK  193  A    between atoms: _460  and  _461
REMARK  194  A    between atoms: _463  and  _465
REMARK  195  A    between atoms: _465  and  _466
REMARK  196  A    between atoms: _465  and  _468
REMARK  197  A    between atoms: _471  and  _473
REMARK  198  A    between atoms: _473  and  _474
REMARK  199  A    between atoms: _473  and  _476
REMARK  200  A    between atoms: _476  and  _477
REMARK  201  A    between atoms: _482  and  _483
REMARK                            x       y       z     vdW  Elec       q    Type
REMARK                         _______ _______ _______ _____ _____    ______ ____
ROOT
ATOM      1  C   PHE A   2       8.024  29.443  33.863  0.00  0.00    +0.241 C 
ATOM      2  O   PHE A   2       7.062  30.162  33.580  0.00  0.00    -0.273 OA
ATOM      3  N   GLY A   3       8.990  29.118  33.001  0.00  0.00    -0.295 N 
ATOM      4  H   GLY A   3       9.804  28.583  33.365  0.00  0.00    +0.150 HD
ENDROOT
BRANCH   3   5
ATOM      5  CA  GLY A   3       8.981  29.462  31.584  0.00  0.00    +0.176 C 
BRANCH   5   6
ATOM      6  C   GLY A   3       8.117  28.460  30.849  0.00  0.00    +0.243 C 
ATOM      7  O   GLY A   3       8.049  27.295  31.254  0.00  0.00    -0.273 OA
ATOM      8  N   VAL A   4       7.382  28.915  29.828  0.00  0.00    -0.297 N 
ATOM      9  H   VAL A   4       7.451  29.922  29.579  0.00  0.00    +0.150 HD
BRANCH   8  10
ATOM     10  CA  VAL A   4       6.489  28.066  29.048  0.00  0.00    +0.149 C 
BRANCH  10  11
ATOM     11  C   VAL A   4       7.059  27.956  27.624  0.00  0.00    +0.241 C 
ATOM     12  N   TYR A   5       7.119  26.703  27.122  0.00  0.00    -0.298 N 
ATOM     13  H   TYR A   5       6.699  25.951  27.705  0.00  0.00    +0.150 HD
ATOM     14  O   VAL A   4       7.500  28.958  27.031  0.00  0.00    -0.273 OA
BRANCH  12  15
ATOM     15  CA  TYR A   5       7.708  26.286  25.850  0.00  0.00    +0.141 C 
BRANCH  15  16
ATOM     16  C   TYR A   5       6.724  25.543  24.984  0.00  0.00    +0.227 C 
ATOM     17  O   TYR A   5       5.913  24.771  25.496  0.00  0.00    -0.286 OA
ENDBRANCH  15  16
BRANCH  15  18
ATOM     18  CB  TYR A   5       8.934  25.386  26.110  0.00  0.00    +0.054 C 
BRANCH  18  19
ATOM     19  CG  TYR A   5      10.009  26.070  26.929  0.00  0.00    -0.020 A 
ATOM     20  CD2 TYR A   5       9.921  26.137  28.323  0.00  0.00    -0.001 A 
ATOM     21  CE2 TYR A   5      10.873  26.822  29.077  0.00  0.00    +0.036 A 
ATOM     22  CZ  TYR A   5      11.949  27.424  28.440  0.00  0.00    +0.134 A 
ATOM     23  CE1 TYR A   5      12.068  27.343  27.060  0.00  0.00    +0.036 A 
ATOM     24  CD1 TYR A   5      11.094  26.682  26.315  0.00  0.00    -0.001 A 
BRANCH  22  25
ATOM     25  OH  TYR A   5      12.905  28.094  29.171  0.00  0.00    -0.506 OA
ATOM     26  HH  TYR A   5      12.670  28.057  30.132  0.00  0.00    +0.292 HD
ENDBRANCH  22  25
ENDBRANCH  18  19
ENDBRANCH  15  18
ENDBRANCH  12  15
ENDBRANCH  10  11
BRANCH  10  27
ATOM     27  CB  VAL A   4       4.979  28.493  29.126  0.00  0.00    +0.027 C 
ATOM     28  CG2 VAL A   4       4.570  28.878  30.556  0.00  0.00    +0.002 C 
ATOM     29  CG1 VAL A   4       4.062  27.385  28.624  0.00  0.00    +0.002 C 
ENDBRANCH  10  27
ENDBRANCH   8  10
ENDBRANCH   5   6
ENDBRANCH   3   5
BRANCH   1  30
ATOM     30  CA  PHE A   2       8.170  28.877  35.282  0.00  0.00    +0.153 C 
BRANCH  30  33
ATOM     31  C   HIS A   1       7.623  30.452  37.119  0.00  0.00    +0.239 C 
ATOM     32  O   HIS A   1       8.794  30.808  37.287  0.00  0.00    -0.274 OA
ATOM     33  N   PHE A   2       7.241  29.553  36.193  0.00  0.00    -0.297 N 
ATOM     34  H   PHE A   2       6.229  29.325  36.119  0.00  0.00    +0.150 HD
BRANCH  31  35
ATOM     35  CA  HIS A   1       6.516  31.068  37.946  0.00  0.00    +0.151 C 
BRANCH  35  36
ATOM     36  N   HIS A   1       6.880  31.269  39.343  0.00  0.00    -0.238 NA
ATOM     37  H   HIS A   1       7.826  31.641  39.563  0.00  0.00    +0.142 HD
ENDBRANCH  35  36
BRANCH  35  38
ATOM     38  CB  HIS A   1       6.076  32.407  37.320  0.00  0.00    +0.074 C 
BRANCH  38  39
ATOM     39  CG  HIS A   1       4.812  32.967  37.907  0.00  0.00    +0.082 A 
ATOM     40  ND1 HIS A   1       4.787  34.213  38.510  0.00  0.00    -0.227 NA
ATOM     41  CE1 HIS A   1       3.540  34.392  38.909  0.00  0.00    +0.199 A 
ATOM     42  NE2 HIS A   1       2.774  33.343  38.612  0.00  0.00    -0.221 NA
ATOM     43  CD2 HIS A   1       3.574  32.421  37.982  0.00  0.00    +0.115 A 
ENDBRANCH  38  39
ENDBRANCH  35  38
ENDBRANCH  31  35
ENDBRANCH  30  33
BRANCH  30  44
ATOM     44  CB  PHE A   2       7.896  27.362  35.257  0.00  0.00    +0.055 C 
BRANCH  44  45
ATOM     45  CG  PHE A   2       8.064  26.657  36.582  0.00  0.00    -0.020 A 
ATOM     46  CD2 PHE A   2       6.983  26.495  37.445  0.00  0.00    -0.004 A 
ATOM     47  CE2 PHE A   2       7.141  25.854  38.674  0.00  0.00    -0.000 A 
ATOM     48  CZ  PHE A   2       8.377  25.363  39.040  0.00  0.00    -0.000 A 
ATOM     49  CE1 PHE A   2       9.452  25.488  38.184  0.00  0.00    -0.000 A 
ATOM     50  CD1 PHE A   2       9.294  26.125  36.954  0.00  0.00    -0.004 A 
ENDBRANCH  44  45
ENDBRANCH  30  44
ENDBRANCH   1  30
TORSDOF 18
REMARK  Name = ../refined-set-2016/4x8v/4x8v_pocket.pdb
REMARK  201 active torsions:
REMARK  status: ('A' for Active; 'I' for Inactive)
REMARK    1  A    between atoms: _1  and  _3
REMARK    2  A    between atoms: _3  and  _4
REMARK    3  A    between atoms: _3  and  _6
REMARK    4  A    between atoms: _9  and  _11
REMARK    5  A    between atoms: _11  and  _12
REMARK    6  A    between atoms: _11  and  _14
REMARK    7  A    between atoms: _17  and  _19
REMARK    8  A    between atoms: _19  and  _20
REMARK    9  A    between atoms: _19  and  _22
REMARK   10  A    between atoms: _22  and  _23
REMARK   11  A    between atoms: _23  and  _24
REMARK   12  A    between atoms: _29  and  _31
REMARK   13  A    between atoms: _31  and  _32
REMARK   14  A    between atoms: _31  and  _34
REMARK   15  A    between atoms: _34  and  _35
REMARK   16  A    between atoms: _38  and  _40
REMARK   17  A    between atoms: _40  and  _41
REMARK   18  A    between atoms: _40  and  _43
REMARK   19  A    between atoms: _43  and  _44
REMARK   20  A    between atoms: _44  and  _79
REMARK   21  A    between atoms: _45  and  _47
REMARK   22  A    between atoms: _47  and  _48
REMARK   23  A    between atoms: _50  and  _52
REMARK   24  A    between atoms: _52  and  _53
REMARK   25  A    between atoms: _56  and  _58
REMARK   26  A    between atoms: _58  and  _59
REMARK   27  A    between atoms: _62  and  _64
REMARK   28  A    between atoms: _64  and  _65
REMARK   29  A    between atoms: _64  and  _67
REMARK   30  A    between atoms: _67  and  _68
REMARK   31  A    between atoms: _73  and  _75
REMARK   32  A    between atoms: _75  and  _76
REMARK   33  A    between atoms: _75  and  _78
REMARK   34  A    between atoms: _78  and  _79
REMARK   35  A    between atoms: _80  and  _82
REMARK   36  A    between atoms: _82  and  _83
REMARK   37  A    between atoms: _82  and  _85
REMARK   38  A    between atoms: _85  and  _86
REMARK   39  A    between atoms: _92  and  _94
REMARK   40  A    between atoms: _94  and  _95
REMARK   41  A    between atoms: _94  and  _97
REMARK   42  A    between atoms: _97  and  _98
REMARK   43  A    between atoms: _101  and  _103
REMARK   44  A    between atoms: _103  and  _104
REMARK   45  A    between atoms: _103  and  _106
REMARK   46  A    between atoms: _106  and  _107
REMARK   47  A    between atoms: _107  and  _108
REMARK   48  A    between atoms: _108  and  _109
REMARK   49  A    between atoms: _109  and  _110
REMARK   50  A    between atoms: _114  and  _116
REMARK   51  A    between atoms: _116  and  _117
REMARK   52  A    between atoms: _116  and  _119
REMARK   53  A    between atoms: _119  and  _120
REMARK   54  A    between atoms: _123  and  _125
REMARK   55  A    between atoms: _125  and  _126
REMARK   56  A    between atoms: _125  and  _128
REMARK   57  A    between atoms: _128  and  _129
REMARK   58  A    between atoms: _134  and  _135
REMARK   59  A    between atoms: _137  and  _139
REMARK   60  A    between atoms: _139  and  _140
REMARK   61  A    between atoms: _139  and  _142
REMARK   62  A    between atoms: _146  and  _147
REMARK   63  A    between atoms: _152  and  _154
REMARK   64  A    between atoms: _154  and  _155
REMARK   65  A    between atoms: _157  and  _159
REMARK   66  A    between atoms: _159  and  _160
REMARK   67  A    between atoms: _159  and  _162
REMARK   68  A    between atoms: _162  and  _163
REMARK   69  A    between atoms: _166  and  _168
REMARK   70  A    between atoms: _168  and  _169
REMARK   71  A    between atoms: _168  and  _171
REMARK   72  A    between atoms: _171  and  _172
REMARK   73  A    between atoms: _175  and  _177
REMARK   74  A    between atoms: _177  and  _178
REMARK   75  A    between atoms: _177  and  _180
REMARK   76  A    between atoms: _180  and  _181
REMARK   77  A    between atoms: _186  and  _188
REMARK   78  A    between atoms: _188  and  _189
REMARK   79  A    between atoms: _188  and  _191
REMARK   80  A    between atoms: _191  and  _192
REMARK   81  A    between atoms: _195  and  _197
REMARK   82  A    between atoms: _197  and  _198
REMARK   83  A    between atoms: _197  and  _200
REMARK   84  A    between atoms: _203  and  _205
REMARK   85  A    between atoms: _205  and  _206
REMARK   86  A    between atoms: _205  and  _208
REMARK   87  A    between atoms: _208  and  _209
REMARK   88  A    between atoms: _209  and  _210
REMARK   89  A    between atoms: _215  and  _217
REMARK   90  A    between atoms: _217  and  _218
REMARK   91  A    between atoms: _217  and  _220
REMARK   92  A    between atoms: _220  and  _221
REMARK   93  A    between atoms: _224  and  _226
REMARK   94  A    between atoms: _226  and  _227
REMARK   95  A    between atoms: _226  and  _229
REMARK   96  A    between atoms: _229  and  _230
REMARK   97  A    between atoms: _233  and  _235
REMARK   98  A    between atoms: _235  and  _236
REMARK   99  A    between atoms: _235  and  _238
REMARK  100  A    between atoms: _238  and  _239
REMARK  101  A    between atoms: _242  and  _243
REMARK  102  A    between atoms: _248  and  _250
REMARK  103  A    between atoms: _250  and  _251
REMARK  104  A    between atoms: _254  and  _256
REMARK  105  A    between atoms: _256  and  _257
REMARK  106  A    between atoms: _256  and  _259
REMARK  107  A    between atoms: _259  and  _260
REMARK  108  A    between atoms: _265  and  _266
REMARK  109  A    between atoms: _268  and  _270
REMARK  110  A    between atoms: _270  and  _271
REMARK  111  A    between atoms: _270  and  _273
REMARK  112  A    between atoms: _273  and  _274
REMARK  113  A    between atoms: _274  and  _275
REMARK  114  A    between atoms: _275  and  _276
REMARK  115  A    between atoms: _276  and  _277
REMARK  116  A    between atoms: _281  and  _283
REMARK  117  A    between atoms: _283  and  _284
REMARK  118  A    between atoms: _283  and  _286
REMARK  119  A    between atoms: _286  and  _287
REMARK  120  A    between atoms: _290  and  _292
REMARK  121  A    between atoms: _292  and  _293
REMARK  122  A    between atoms: _292  and  _295
REMARK  123  A    between atoms: _295  and  _296
REMARK  124  A    between atoms: _298  and  _300
REMARK  125  A    between atoms: _300  and  _301
REMARK  126  A    between atoms: _300  and  _303
REMARK  127  A    between atoms: _303  and  _304
REMARK  128  A    between atoms: _304  and  _419
REMARK  129  A    between atoms: _305  and  _307
REMARK  130  A    between atoms: _307  and  _308
REMARK  131  A    between atoms: _307  and  _310
REMARK  132  A    between atoms: _310  and  _311
REMARK  133  A    between atoms: _311  and  _312
REMARK  134  A    between atoms: _312  and  _313
REMARK  135  A    between atoms: _313  and  _314
REMARK  136  A    between atoms: _318  and  _320
REMARK  137  A    between atoms: _320  and  _321
REMARK  138  A    between atoms: _323  and  _325
REMARK  139  A    between atoms: _325  and  _326
REMARK  140  A    between atoms: _325  and  _328
REMARK  141  A    between atoms: _328  and  _329
REMARK  142  A    between atoms: _332  and  _334
REMARK  143  A    between atoms: _334  and  _335
REMARK  144  A    between atoms: _334  and  _337
REMARK  145  A    between atoms: _337  and  _338
REMARK  146  A    between atoms: _340  and  _342
REMARK  147  A    between atoms: _342  and  _343
REMARK  148  A    between atoms: _345  and  _347
REMARK  149  A    between atoms: _347  and  _348
REMARK  150  A    between atoms: _350  and  _352
REMARK  151  A    between atoms: _352  and  _353
REMARK  152  A    between atoms: _352  and  _355
REMARK  153  A    between atoms: _355  and  _356
REMARK  154  A    between atoms: _359  and  _361
REMARK  155  A    between atoms: _361  and  _362
REMARK  156  A    between atoms: _361  and  _364
REMARK  157  A    between atoms: _367  and  _369
REMARK  158  A    between atoms: _369  and  _370
REMARK  159  A    between atoms: _369  and  _372
REMARK  160  A    between atoms: _372  and  _373
REMARK  161  A    between atoms: _375  and  _377
REMARK  162  A    between atoms: _377  and  _378
REMARK  163  A    between atoms: _377  and  _380
REMARK  164  A    between atoms: _380  and  _381
REMARK  165  A    between atoms: _391  and  _393
REMARK  166  A    between atoms: _393  and  _394
REMARK  167  A    between atoms: _396  and  _398
REMARK  168  A    between atoms: _398  and  _399
REMARK  169  A    between atoms: _398  and  _401
REMARK  170  A    between atoms: _401  and  _402
REMARK  171  A    between atoms: _402  and  _403
REMARK  172  A    between atoms: _408  and  _410
REMARK  173  A    between atoms: _410  and  _411
REMARK  174  A    between atoms: _413  and  _415
REMARK  175  A    between atoms: _415  and  _416
REMARK  176  A    between atoms: _415  and  _418
REMARK  177  A    between atoms: _418  and  _419
REMARK  178  A    between atoms: _420  and  _422
REMARK  179  A    between atoms: _422  and  _423
REMARK  180  A    between atoms: _426  and  _428
REMARK  181  A    between atoms: _428  and  _429
REMARK  182  A    between atoms: _428  and  _431
REMARK  183  A    between atoms: _431  and  _432
REMARK  184  A    between atoms: _435  and  _437
REMARK  185  A    between atoms: _437  and  _438
REMARK  186  A    between atoms: _437  and  _440
REMARK  187  A    between atoms: _440  and  _441
REMARK  188  A    between atoms: _446  and  _448
REMARK  189  A    between atoms: _448  and  _449
REMARK  190  A    between atoms: _448  and  _451
REMARK  191  A    between atoms: _451  and  _452
REMARK  192  A    between atoms: _458  and  _460
REMARK  193  A    between atoms: _460  and  _461
REMARK  194  A    between atoms: _463  and  _465
REMARK  195  A    between atoms: _465  and  _466
REMARK  196  A    between atoms: _465  and  _468
REMARK  197  A    between atoms: _471  and  _473
REMARK  198  A    between atoms: _473  and  _474
REMARK  199  A    between atoms: _473  and  _476
REMARK  200  A    between atoms: _476  and  _477
REMARK  201  A    between atoms: _482  and  _483
REMARK                            x       y       z     vdW  Elec       q    Type
REMARK                         _______ _______ _______ _____ _____    ______ ____
ROOT
ATOM      1  O   HOH     1      12.370  28.413  31.807  0.00  0.00    +0.000 OA
ENDROOT
TORSDOF 0
REMARK  Name = ../refined-set-2016/4x8v/4x8v_pocket.pdb
REMARK  201 active torsions:
REMARK  status: ('A' for Active; 'I' for Inactive)
REMARK    1  A    between atoms: _1  and  _3
REMARK    2  A    between atoms: _3  and  _4
REMARK    3  A    between atoms: _3  and  _6
REMARK    4  A    between atoms: _9  and  _11
REMARK    5  A    between atoms: _11  and  _12
REMARK    6  A    between atoms: _11  and  _14
REMARK    7  A    between atoms: _17  and  _19
REMARK    8  A    between atoms: _19  and  _20
REMARK    9  A    between atoms: _19  and  _22
REMARK   10  A    between atoms: _22  and  _23
REMARK   11  A    between atoms: _23  and  _24
REMARK   12  A    between atoms: _29  and  _31
REMARK   13  A    between atoms: _31  and  _32
REMARK   14  A    between atoms: _31  and  _34
REMARK   15  A    between atoms: _34  and  _35
REMARK   16  A    between atoms: _38  and  _40
REMARK   17  A    between atoms: _40  and  _41
REMARK   18  A    between atoms: _40  and  _43
REMARK   19  A    between atoms: _43  and  _44
REMARK   20  A    between atoms: _44  and  _79
REMARK   21  A    between atoms: _45  and  _47
REMARK   22  A    between atoms: _47  and  _48
REMARK   23  A    between atoms: _50  and  _52
REMARK   24  A    between atoms: _52  and  _53
REMARK   25  A    between atoms: _56  and  _58
REMARK   26  A    between atoms: _58  and  _59
REMARK   27  A    between atoms: _62  and  _64
REMARK   28  A    between atoms: _64  and  _65
REMARK   29  A    between atoms: _64  and  _67
REMARK   30  A    between atoms: _67  and  _68
REMARK   31  A    between atoms: _73  and  _75
REMARK   32  A    between atoms: _75  and  _76
REMARK   33  A    between atoms: _75  and  _78
REMARK   34  A    between atoms: _78  and  _79
REMARK   35  A    between atoms: _80  and  _82
REMARK   36  A    between atoms: _82  and  _83
REMARK   37  A    between atoms: _82  and  _85
REMARK   38  A    between atoms: _85  and  _86
REMARK   39  A    between atoms: _92  and  _94
REMARK   40  A    between atoms: _94  and  _95
REMARK   41  A    between atoms: _94  and  _97
REMARK   42  A    between atoms: _97  and  _98
REMARK   43  A    between atoms: _101  and  _103
REMARK   44  A    between atoms: _103  and  _104
REMARK   45  A    between atoms: _103  and  _106
REMARK   46  A    between atoms: _106  and  _107
REMARK   47  A    between atoms: _107  and  _108
REMARK   48  A    between atoms: _108  and  _109
REMARK   49  A    between atoms: _109  and  _110
REMARK   50  A    between atoms: _114  and  _116
REMARK   51  A    between atoms: _116  and  _117
REMARK   52  A    between atoms: _116  and  _119
REMARK   53  A    between atoms: _119  and  _120
REMARK   54  A    between atoms: _123  and  _125
REMARK   55  A    between atoms: _125  and  _126
REMARK   56  A    between atoms: _125  and  _128
REMARK   57  A    between atoms: _128  and  _129
REMARK   58  A    between atoms: _134  and  _135
REMARK   59  A    between atoms: _137  and  _139
REMARK   60  A    between atoms: _139  and  _140
REMARK   61  A    between atoms: _139  and  _142
REMARK   62  A    between atoms: _146  and  _147
REMARK   63  A    between atoms: _152  and  _154
REMARK   64  A    between atoms: _154  and  _155
REMARK   65  A    between atoms: _157  and  _159
REMARK   66  A    between atoms: _159  and  _160
REMARK   67  A    between atoms: _159  and  _162
REMARK   68  A    between atoms: _162  and  _163
REMARK   69  A    between atoms: _166  and  _168
REMARK   70  A    between atoms: _168  and  _169
REMARK   71  A    between atoms: _168  and  _171
REMARK   72  A    between atoms: _171  and  _172
REMARK   73  A    between atoms: _175  and  _177
REMARK   74  A    between atoms: _177  and  _178
REMARK   75  A    between atoms: _177  and  _180
REMARK   76  A    between atoms: _180  and  _181
REMARK   77  A    between atoms: _186  and  _188
REMARK   78  A    between atoms: _188  and  _189
REMARK   79  A    between atoms: _188  and  _191
REMARK   80  A    between atoms: _191  and  _192
REMARK   81  A    between atoms: _195  and  _197
REMARK   82  A    between atoms: _197  and  _198
REMARK   83  A    between atoms: _197  and  _200
REMARK   84  A    between atoms: _203  and  _205
REMARK   85  A    between atoms: _205  and  _206
REMARK   86  A    between atoms: _205  and  _208
REMARK   87  A    between atoms: _208  and  _209
REMARK   88  A    between atoms: _209  and  _210
REMARK   89  A    between atoms: _215  and  _217
REMARK   90  A    between atoms: _217  and  _218
REMARK   91  A    between atoms: _217  and  _220
REMARK   92  A    between atoms: _220  and  _221
REMARK   93  A    between atoms: _224  and  _226
REMARK   94  A    between atoms: _226  and  _227
REMARK   95  A    between atoms: _226  and  _229
REMARK   96  A    between atoms: _229  and  _230
REMARK   97  A    between atoms: _233  and  _235
REMARK   98  A    between atoms: _235  and  _236
REMARK   99  A    between atoms: _235  and  _238
REMARK  100  A    between atoms: _238  and  _239
REMARK  101  A    between atoms: _242  and  _243
REMARK  102  A    between atoms: _248  and  _250
REMARK  103  A    between atoms: _250  and  _251
REMARK  104  A    between atoms: _254  and  _256
REMARK  105  A    between atoms: _256  and  _257
REMARK  106  A    between atoms: _256  and  _259
REMARK  107  A    between atoms: _259  and  _260
REMARK  108  A    between atoms: _265  and  _266
REMARK  109  A    between atoms: _268  and  _270
REMARK  110  A    between atoms: _270  and  _271
REMARK  111  A    between atoms: _270  and  _273
REMARK  112  A    between atoms: _273  and  _274
REMARK  113  A    between atoms: _274  and  _275
REMARK  114  A    between atoms: _275  and  _276
REMARK  115  A    between atoms: _276  and  _277
REMARK  116  A    between atoms: _281  and  _283
REMARK  117  A    between atoms: _283  and  _284
REMARK  118  A    between atoms: _283  and  _286
REMARK  119  A    between atoms: _286  and  _287
REMARK  120  A    between atoms: _290  and  _292
REMARK  121  A    between atoms: _292  and  _293
REMARK  122  A    between atoms: _292  and  _295
REMARK  123  A    between atoms: _295  and  _296
REMARK  124  A    between atoms: _298  and  _300
REMARK  125  A    between atoms: _300  and  _301
REMARK  126  A    between atoms: _300  and  _303
REMARK  127  A    between atoms: _303  and  _304
REMARK  128  A    between atoms: _304  and  _419
REMARK  129  A    between atoms: _305  and  _307
REMARK  130  A    between atoms: _307  and  _308
REMARK  131  A    between atoms: _307  and  _310
REMARK  132  A    between atoms: _310  and  _311
REMARK  133  A    between atoms: _311  and  _312
REMARK  134  A    between atoms: _312  and  _313
REMARK  135  A    between atoms: _313  and  _314
REMARK  136  A    between atoms: _318  and  _320
REMARK  137  A    between atoms: _320  and  _321
REMARK  138  A    between atoms: _323  and  _325
REMARK  139  A    between atoms: _325  and  _326
REMARK  140  A    between atoms: _325  and  _328
REMARK  141  A    between atoms: _328  and  _329
REMARK  142  A    between atoms: _332  and  _334
REMARK  143  A    between atoms: _334  and  _335
REMARK  144  A    between atoms: _334  and  _337
REMARK  145  A    between atoms: _337  and  _338
REMARK  146  A    between atoms: _340  and  _342
REMARK  147  A    between atoms: _342  and  _343
REMARK  148  A    between atoms: _345  and  _347
REMARK  149  A    between atoms: _347  and  _348
REMARK  150  A    between atoms: _350  and  _352
REMARK  151  A    between atoms: _352  and  _353
REMARK  152  A    between atoms: _352  and  _355
REMARK  153  A    between atoms: _355  and  _356
REMARK  154  A    between atoms: _359  and  _361
REMARK  155  A    between atoms: _361  and  _362
REMARK  156  A    between atoms: _361  and  _364
REMARK  157  A    between atoms: _367  and  _369
REMARK  158  A    between atoms: _369  and  _370
REMARK  159  A    between atoms: _369  and  _372
REMARK  160  A    between atoms: _372  and  _373
REMARK  161  A    between atoms: _375  and  _377
REMARK  162  A    between atoms: _377  and  _378
REMARK  163  A    between atoms: _377  and  _380
REMARK  164  A    between atoms: _380  and  _381
REMARK  165  A    between atoms: _391  and  _393
REMARK  166  A    between atoms: _393  and  _394
REMARK  167  A    between atoms: _396  and  _398
REMARK  168  A    between atoms: _398  and  _399
REMARK  169  A    between atoms: _398  and  _401
REMARK  170  A    between atoms: _401  and  _402
REMARK  171  A    between atoms: _402  and  _403
REMARK  172  A    between atoms: _408  and  _410
REMARK  173  A    between atoms: _410  and  _411
REMARK  174  A    between atoms: _413  and  _415
REMARK  175  A    between atoms: _415  and  _416
REMARK  176  A    between atoms: _415  and  _418
REMARK  177  A    between atoms: _418  and  _419
REMARK  178  A    between atoms: _420  and  _422
REMARK  179  A    between atoms: _422  and  _423
REMARK  180  A    between atoms: _426  and  _428
REMARK  181  A    between atoms: _428  and  _429
REMARK  182  A    between atoms: _428  and  _431
REMARK  183  A    between atoms: _431  and  _432
REMARK  184  A    between atoms: _435  and  _437
REMARK  185  A    between atoms: _437  and  _438
REMARK  186  A    between atoms: _437  and  _440
REMARK  187  A    between atoms: _440  and  _441
REMARK  188  A    between atoms: _446  and  _448
REMARK  189  A    between atoms: _448  and  _449
REMARK  190  A    between atoms: _448  and  _451
REMARK  191  A    between atoms: _451  and  _452
REMARK  192  A    between atoms: _458  and  _460
REMARK  193  A    between atoms: _460  and  _461
REMARK  194  A    between atoms: _463  and  _465
REMARK  195  A    between atoms: _465  and  _466
REMARK  196  A    between atoms: _465  and  _468
REMARK  197  A    between atoms: _471  and  _473
REMARK  198  A    between atoms: _473  and  _474
REMARK  199  A    between atoms: _473  and  _476
REMARK  200  A    between atoms: _476  and  _477
REMARK  201  A    between atoms: _482  and  _483
REMARK                            x       y       z     vdW  Elec       q    Type
REMARK                         _______ _______ _______ _____ _____    ______ ____
ROOT
ATOM      1  O   HOH     1      11.806  29.554  35.220  0.00  0.00    +0.000 OA
ENDROOT
TORSDOF 0
REMARK  Name = ../refined-set-2016/4x8v/4x8v_pocket.pdb
REMARK  201 active torsions:
REMARK  status: ('A' for Active; 'I' for Inactive)
REMARK    1  A    between atoms: _1  and  _3
REMARK    2  A    between atoms: _3  and  _4
REMARK    3  A    between atoms: _3  and  _6
REMARK    4  A    between atoms: _9  and  _11
REMARK    5  A    between atoms: _11  and  _12
REMARK    6  A    between atoms: _11  and  _14
REMARK    7  A    between atoms: _17  and  _19
REMARK    8  A    between atoms: _19  and  _20
REMARK    9  A    between atoms: _19  and  _22
REMARK   10  A    between atoms: _22  and  _23
REMARK   11  A    between atoms: _23  and  _24
REMARK   12  A    between atoms: _29  and  _31
REMARK   13  A    between atoms: _31  and  _32
REMARK   14  A    between atoms: _31  and  _34
REMARK   15  A    between atoms: _34  and  _35
REMARK   16  A    between atoms: _38  and  _40
REMARK   17  A    between atoms: _40  and  _41
REMARK   18  A    between atoms: _40  and  _43
REMARK   19  A    between atoms: _43  and  _44
REMARK   20  A    between atoms: _44  and  _79
REMARK   21  A    between atoms: _45  and  _47
REMARK   22  A    between atoms: _47  and  _48
REMARK   23  A    between atoms: _50  and  _52
REMARK   24  A    between atoms: _52  and  _53
REMARK   25  A    between atoms: _56  and  _58
REMARK   26  A    between atoms: _58  and  _59
REMARK   27  A    between atoms: _62  and  _64
REMARK   28  A    between atoms: _64  and  _65
REMARK   29  A    between atoms: _64  and  _67
REMARK   30  A    between atoms: _67  and  _68
REMARK   31  A    between atoms: _73  and  _75
REMARK   32  A    between atoms: _75  and  _76
REMARK   33  A    between atoms: _75  and  _78
REMARK   34  A    between atoms: _78  and  _79
REMARK   35  A    between atoms: _80  and  _82
REMARK   36  A    between atoms: _82  and  _83
REMARK   37  A    between atoms: _82  and  _85
REMARK   38  A    between atoms: _85  and  _86
REMARK   39  A    between atoms: _92  and  _94
REMARK   40  A    between atoms: _94  and  _95
REMARK   41  A    between atoms: _94  and  _97
REMARK   42  A    between atoms: _97  and  _98
REMARK   43  A    between atoms: _101  and  _103
REMARK   44  A    between atoms: _103  and  _104
REMARK   45  A    between atoms: _103  and  _106
REMARK   46  A    between atoms: _106  and  _107
REMARK   47  A    between atoms: _107  and  _108
REMARK   48  A    between atoms: _108  and  _109
REMARK   49  A    between atoms: _109  and  _110
REMARK   50  A    between atoms: _114  and  _116
REMARK   51  A    between atoms: _116  and  _117
REMARK   52  A    between atoms: _116  and  _119
REMARK   53  A    between atoms: _119  and  _120
REMARK   54  A    between atoms: _123  and  _125
REMARK   55  A    between atoms: _125  and  _126
REMARK   56  A    between atoms: _125  and  _128
REMARK   57  A    between atoms: _128  and  _129
REMARK   58  A    between atoms: _134  and  _135
REMARK   59  A    between atoms: _137  and  _139
REMARK   60  A    between atoms: _139  and  _140
REMARK   61  A    between atoms: _139  and  _142
REMARK   62  A    between atoms: _146  and  _147
REMARK   63  A    between atoms: _152  and  _154
REMARK   64  A    between atoms: _154  and  _155
REMARK   65  A    between atoms: _157  and  _159
REMARK   66  A    between atoms: _159  and  _160
REMARK   67  A    between atoms: _159  and  _162
REMARK   68  A    between atoms: _162  and  _163
REMARK   69  A    between atoms: _166  and  _168
REMARK   70  A    between atoms: _168  and  _169
REMARK   71  A    between atoms: _168  and  _171
REMARK   72  A    between atoms: _171  and  _172
REMARK   73  A    between atoms: _175  and  _177
REMARK   74  A    between atoms: _177  and  _178
REMARK   75  A    between atoms: _177  and  _180
REMARK   76  A    between atoms: _180  and  _181
REMARK   77  A    between atoms: _186  and  _188
REMARK   78  A    between atoms: _188  and  _189
REMARK   79  A    between atoms: _188  and  _191
REMARK   80  A    between atoms: _191  and  _192
REMARK   81  A    between atoms: _195  and  _197
REMARK   82  A    between atoms: _197  and  _198
REMARK   83  A    between atoms: _197  and  _200
REMARK   84  A    between atoms: _203  and  _205
REMARK   85  A    between atoms: _205  and  _206
REMARK   86  A    between atoms: _205  and  _208
REMARK   87  A    between atoms: _208  and  _209
REMARK   88  A    between atoms: _209  and  _210
REMARK   89  A    between atoms: _215  and  _217
REMARK   90  A    between atoms: _217  and  _218
REMARK   91  A    between atoms: _217  and  _220
REMARK   92  A    between atoms: _220  and  _221
REMARK   93  A    between atoms: _224  and  _226
REMARK   94  A    between atoms: _226  and  _227
REMARK   95  A    between atoms: _226  and  _229
REMARK   96  A    between atoms: _229  and  _230
REMARK   97  A    between atoms: _233  and  _235
REMARK   98  A    between atoms: _235  and  _236
REMARK   99  A    between atoms: _235  and  _238
REMARK  100  A    between atoms: _238  and  _239
REMARK  101  A    between atoms: _242  and  _243
REMARK  102  A    between atoms: _248  and  _250
REMARK  103  A    between atoms: _250  and  _251
REMARK  104  A    between atoms: _254  and  _256
REMARK  105  A    between atoms: _256  and  _257
REMARK  106  A    between atoms: _256  and  _259
REMARK  107  A    between atoms: _259  and  _260
REMARK  108  A    between atoms: _265  and  _266
REMARK  109  A    between atoms: _268  and  _270
REMARK  110  A    between atoms: _270  and  _271
REMARK  111  A    between atoms: _270  and  _273
REMARK  112  A    between atoms: _273  and  _274
REMARK  113  A    between atoms: _274  and  _275
REMARK  114  A    between atoms: _275  and  _276
REMARK  115  A    between atoms: _276  and  _277
REMARK  116  A    between atoms: _281  and  _283
REMARK  117  A    between atoms: _283  and  _284
REMARK  118  A    between atoms: _283  and  _286
REMARK  119  A    between atoms: _286  and  _287
REMARK  120  A    between atoms: _290  and  _292
REMARK  121  A    between atoms: _292  and  _293
REMARK  122  A    between atoms: _292  and  _295
REMARK  123  A    between atoms: _295  and  _296
REMARK  124  A    between atoms: _298  and  _300
REMARK  125  A    between atoms: _300  and  _301
REMARK  126  A    between atoms: _300  and  _303
REMARK  127  A    between atoms: _303  and  _304
REMARK  128  A    between atoms: _304  and  _419
REMARK  129  A    between atoms: _305  and  _307
REMARK  130  A    between atoms: _307  and  _308
REMARK  131  A    between atoms: _307  and  _310
REMARK  132  A    between atoms: _310  and  _311
REMARK  133  A    between atoms: _311  and  _312
REMARK  134  A    between atoms: _312  and  _313
REMARK  135  A    between atoms: _313  and  _314
REMARK  136  A    between atoms: _318  and  _320
REMARK  137  A    between atoms: _320  and  _321
REMARK  138  A    between atoms: _323  and  _325
REMARK  139  A    between atoms: _325  and  _326
REMARK  140  A    between atoms: _325  and  _328
REMARK  141  A    between atoms: _328  and  _329
REMARK  142  A    between atoms: _332  and  _334
REMARK  143  A    between atoms: _334  and  _335
REMARK  144  A    between atoms: _334  and  _337
REMARK  145  A    between atoms: _337  and  _338
REMARK  146  A    between atoms: _340  and  _342
REMARK  147  A    between atoms: _342  and  _343
REMARK  148  A    between atoms: _345  and  _347
REMARK  149  A    between atoms: _347  and  _348
REMARK  150  A    between atoms: _350  and  _352
REMARK  151  A    between atoms: _352  and  _353
REMARK  152  A    between atoms: _352  and  _355
REMARK  153  A    between atoms: _355  and  _356
REMARK  154  A    between atoms: _359  and  _361
REMARK  155  A    between atoms: _361  and  _362
REMARK  156  A    between atoms: _361  and  _364
REMARK  157  A    between atoms: _367  and  _369
REMARK  158  A    between atoms: _369  and  _370
REMARK  159  A    between atoms: _369  and  _372
REMARK  160  A    between atoms: _372  and  _373
REMARK  161  A    between atoms: _375  and  _377
REMARK  162  A    between atoms: _377  and  _378
REMARK  163  A    between atoms: _377  and  _380
REMARK  164  A    between atoms: _380  and  _381
REMARK  165  A    between atoms: _391  and  _393
REMARK  166  A    between atoms: _393  and  _394
REMARK  167  A    between atoms: _396  and  _398
REMARK  168  A    between atoms: _398  and  _399
REMARK  169  A    between atoms: _398  and  _401
REMARK  170  A    between atoms: _401  and  _402
REMARK  171  A    between atoms: _402  and  _403
REMARK  172  A    between atoms: _408  and  _410
REMARK  173  A    between atoms: _410  and  _411
REMARK  174  A    between atoms: _413  and  _415
REMARK  175  A    between atoms: _415  and  _416
REMARK  176  A    between atoms: _415  and  _418
REMARK  177  A    between atoms: _418  and  _419
REMARK  178  A    between atoms: _420  and  _422
REMARK  179  A    between atoms: _422  and  _423
REMARK  180  A    between atoms: _426  and  _428
REMARK  181  A    between atoms: _428  and  _429
REMARK  182  A    between atoms: _428  and  _431
REMARK  183  A    between atoms: _431  and  _432
REMARK  184  A    between atoms: _435  and  _437
REMARK  185  A    between atoms: _437  and  _438
REMARK  186  A    between atoms: _437  and  _440
REMARK  187  A    between atoms: _440  and  _441
REMARK  188  A    between atoms: _446  and  _448
REMARK  189  A    between atoms: _448  and  _449
REMARK  190  A    between atoms: _448  and  _451
REMARK  191  A    between atoms: _451  and  _452
REMARK  192  A    between atoms: _458  and  _460
REMARK  193  A    between atoms: _460  and  _461
REMARK  194  A    between atoms: _463  and  _465
REMARK  195  A    between atoms: _465  and  _466
REMARK  196  A    between atoms: _465  and  _468
REMARK  197  A    between atoms: _471  and  _473
REMARK  198  A    between atoms: _473  and  _474
REMARK  199  A    between atoms: _473  and  _476
REMARK  200  A    between atoms: _476  and  _477
REMARK  201  A    between atoms: _482  and  _483
REMARK                            x       y       z     vdW  Elec       q    Type
REMARK                         _______ _______ _______ _____ _____    ______ ____
ROOT
ATOM      1  O   HOH     1      12.418  42.442  30.146  0.00  0.00    +0.000 OA
ENDROOT
TORSDOF 0
REMARK  Name = ../refined-set-2016/4x8v/4x8v_pocket.pdb
REMARK  201 active torsions:
REMARK  status: ('A' for Active; 'I' for Inactive)
REMARK    1  A    between atoms: _1  and  _3
REMARK    2  A    between atoms: _3  and  _4
REMARK    3  A    between atoms: _3  and  _6
REMARK    4  A    between atoms: _9  and  _11
REMARK    5  A    between atoms: _11  and  _12
REMARK    6  A    between atoms: _11  and  _14
REMARK    7  A    between atoms: _17  and  _19
REMARK    8  A    between atoms: _19  and  _20
REMARK    9  A    between atoms: _19  and  _22
REMARK   10  A    between atoms: _22  and  _23
REMARK   11  A    between atoms: _23  and  _24
REMARK   12  A    between atoms: _29  and  _31
REMARK   13  A    between atoms: _31  and  _32
REMARK   14  A    between atoms: _31  and  _34
REMARK   15  A    between atoms: _34  and  _35
REMARK   16  A    between atoms: _38  and  _40
REMARK   17  A    between atoms: _40  and  _41
REMARK   18  A    between atoms: _40  and  _43
REMARK   19  A    between atoms: _43  and  _44
REMARK   20  A    between atoms: _44  and  _79
REMARK   21  A    between atoms: _45  and  _47
REMARK   22  A    between atoms: _47  and  _48
REMARK   23  A    between atoms: _50  and  _52
REMARK   24  A    between atoms: _52  and  _53
REMARK   25  A    between atoms: _56  and  _58
REMARK   26  A    between atoms: _58  and  _59
REMARK   27  A    between atoms: _62  and  _64
REMARK   28  A    between atoms: _64  and  _65
REMARK   29  A    between atoms: _64  and  _67
REMARK   30  A    between atoms: _67  and  _68
REMARK   31  A    between atoms: _73  and  _75
REMARK   32  A    between atoms: _75  and  _76
REMARK   33  A    between atoms: _75  and  _78
REMARK   34  A    between atoms: _78  and  _79
REMARK   35  A    between atoms: _80  and  _82
REMARK   36  A    between atoms: _82  and  _83
REMARK   37  A    between atoms: _82  and  _85
REMARK   38  A    between atoms: _85  and  _86
REMARK   39  A    between atoms: _92  and  _94
REMARK   40  A    between atoms: _94  and  _95
REMARK   41  A    between atoms: _94  and  _97
REMARK   42  A    between atoms: _97  and  _98
REMARK   43  A    between atoms: _101  and  _103
REMARK   44  A    between atoms: _103  and  _104
REMARK   45  A    between atoms: _103  and  _106
REMARK   46  A    between atoms: _106  and  _107
REMARK   47  A    between atoms: _107  and  _108
REMARK   48  A    between atoms: _108  and  _109
REMARK   49  A    between atoms: _109  and  _110
REMARK   50  A    between atoms: _114  and  _116
REMARK   51  A    between atoms: _116  and  _117
REMARK   52  A    between atoms: _116  and  _119
REMARK   53  A    between atoms: _119  and  _120
REMARK   54  A    between atoms: _123  and  _125
REMARK   55  A    between atoms: _125  and  _126
REMARK   56  A    between atoms: _125  and  _128
REMARK   57  A    between atoms: _128  and  _129
REMARK   58  A    between atoms: _134  and  _135
REMARK   59  A    between atoms: _137  and  _139
REMARK   60  A    between atoms: _139  and  _140
REMARK   61  A    between atoms: _139  and  _142
REMARK   62  A    between atoms: _146  and  _147
REMARK   63  A    between atoms: _152  and  _154
REMARK   64  A    between atoms: _154  and  _155
REMARK   65  A    between atoms: _157  and  _159
REMARK   66  A    between atoms: _159  and  _160
REMARK   67  A    between atoms: _159  and  _162
REMARK   68  A    between atoms: _162  and  _163
REMARK   69  A    between atoms: _166  and  _168
REMARK   70  A    between atoms: _168  and  _169
REMARK   71  A    between atoms: _168  and  _171
REMARK   72  A    between atoms: _171  and  _172
REMARK   73  A    between atoms: _175  and  _177
REMARK   74  A    between atoms: _177  and  _178
REMARK   75  A    between atoms: _177  and  _180
REMARK   76  A    between atoms: _180  and  _181
REMARK   77  A    between atoms: _186  and  _188
REMARK   78  A    between atoms: _188  and  _189
REMARK   79  A    between atoms: _188  and  _191
REMARK   80  A    between atoms: _191  and  _192
REMARK   81  A    between atoms: _195  and  _197
REMARK   82  A    between atoms: _197  and  _198
REMARK   83  A    between atoms: _197  and  _200
REMARK   84  A    between atoms: _203  and  _205
REMARK   85  A    between atoms: _205  and  _206
REMARK   86  A    between atoms: _205  and  _208
REMARK   87  A    between atoms: _208  and  _209
REMARK   88  A    between atoms: _209  and  _210
REMARK   89  A    between atoms: _215  and  _217
REMARK   90  A    between atoms: _217  and  _218
REMARK   91  A    between atoms: _217  and  _220
REMARK   92  A    between atoms: _220  and  _221
REMARK   93  A    between atoms: _224  and  _226
REMARK   94  A    between atoms: _226  and  _227
REMARK   95  A    between atoms: _226  and  _229
REMARK   96  A    between atoms: _229  and  _230
REMARK   97  A    between atoms: _233  and  _235
REMARK   98  A    between atoms: _235  and  _236
REMARK   99  A    between atoms: _235  and  _238
REMARK  100  A    between atoms: _238  and  _239
REMARK  101  A    between atoms: _242  and  _243
REMARK  102  A    between atoms: _248  and  _250
REMARK  103  A    between atoms: _250  and  _251
REMARK  104  A    between atoms: _254  and  _256
REMARK  105  A    between atoms: _256  and  _257
REMARK  106  A    between atoms: _256  and  _259
REMARK  107  A    between atoms: _259  and  _260
REMARK  108  A    between atoms: _265  and  _266
REMARK  109  A    between atoms: _268  and  _270
REMARK  110  A    between atoms: _270  and  _271
REMARK  111  A    between atoms: _270  and  _273
REMARK  112  A    between atoms: _273  and  _274
REMARK  113  A    between atoms: _274  and  _275
REMARK  114  A    between atoms: _275  and  _276
REMARK  115  A    between atoms: _276  and  _277
REMARK  116  A    between atoms: _281  and  _283
REMARK  117  A    between atoms: _283  and  _284
REMARK  118  A    between atoms: _283  and  _286
REMARK  119  A    between atoms: _286  and  _287
REMARK  120  A    between atoms: _290  and  _292
REMARK  121  A    between atoms: _292  and  _293
REMARK  122  A    between atoms: _292  and  _295
REMARK  123  A    between atoms: _295  and  _296
REMARK  124  A    between atoms: _298  and  _300
REMARK  125  A    between atoms: _300  and  _301
REMARK  126  A    between atoms: _300  and  _303
REMARK  127  A    between atoms: _303  and  _304
REMARK  128  A    between atoms: _304  and  _419
REMARK  129  A    between atoms: _305  and  _307
REMARK  130  A    between atoms: _307  and  _308
REMARK  131  A    between atoms: _307  and  _310
REMARK  132  A    between atoms: _310  and  _311
REMARK  133  A    between atoms: _311  and  _312
REMARK  134  A    between atoms: _312  and  _313
REMARK  135  A    between atoms: _313  and  _314
REMARK  136  A    between atoms: _318  and  _320
REMARK  137  A    between atoms: _320  and  _321
REMARK  138  A    between atoms: _323  and  _325
REMARK  139  A    between atoms: _325  and  _326
REMARK  140  A    between atoms: _325  and  _328
REMARK  141  A    between atoms: _328  and  _329
REMARK  142  A    between atoms: _332  and  _334
REMARK  143  A    between atoms: _334  and  _335
REMARK  144  A    between atoms: _334  and  _337
REMARK  145  A    between atoms: _337  and  _338
REMARK  146  A    between atoms: _340  and  _342
REMARK  147  A    between atoms: _342  and  _343
REMARK  148  A    between atoms: _345  and  _347
REMARK  149  A    between atoms: _347  and  _348
REMARK  150  A    between atoms: _350  and  _352
REMARK  151  A    between atoms: _352  and  _353
REMARK  152  A    between atoms: _352  and  _355
REMARK  153  A    between atoms: _355  and  _356
REMARK  154  A    between atoms: _359  and  _361
REMARK  155  A    between atoms: _361  and  _362
REMARK  156  A    between atoms: _361  and  _364
REMARK  157  A    between atoms: _367  and  _369
REMARK  158  A    between atoms: _369  and  _370
REMARK  159  A    between atoms: _369  and  _372
REMARK  160  A    between atoms: _372  and  _373
REMARK  161  A    between atoms: _375  and  _377
REMARK  162  A    between atoms: _377  and  _378
REMARK  163  A    between atoms: _377  and  _380
REMARK  164  A    between atoms: _380  and  _381
REMARK  165  A    between atoms: _391  and  _393
REMARK  166  A    between atoms: _393  and  _394
REMARK  167  A    between atoms: _396  and  _398
REMARK  168  A    between atoms: _398  and  _399
REMARK  169  A    between atoms: _398  and  _401
REMARK  170  A    between atoms: _401  and  _402
REMARK  171  A    between atoms: _402  and  _403
REMARK  172  A    between atoms: _408  and  _410
REMARK  173  A    between atoms: _410  and  _411
REMARK  174  A    between atoms: _413  and  _415
REMARK  175  A    between atoms: _415  and  _416
REMARK  176  A    between atoms: _415  and  _418
REMARK  177  A    between atoms: _418  and  _419
REMARK  178  A    between atoms: _420  and  _422
REMARK  179  A    between atoms: _422  and  _423
REMARK  180  A    between atoms: _426  and  _428
REMARK  181  A    between atoms: _428  and  _429
REMARK  182  A    between atoms: _428  and  _431
REMARK  183  A    between atoms: _431  and  _432
REMARK  184  A    between atoms: _435  and  _437
REMARK  185  A    between atoms: _437  and  _438
REMARK  186  A    between atoms: _437  and  _440
REMARK  187  A    between atoms: _440  and  _441
REMARK  188  A    between atoms: _446  and  _448
REMARK  189  A    between atoms: _448  and  _449
REMARK  190  A    between atoms: _448  and  _451
REMARK  191  A    between atoms: _451  and  _452
REMARK  192  A    between atoms: _458  and  _460
REMARK  193  A    between atoms: _460  and  _461
REMARK  194  A    between atoms: _463  and  _465
REMARK  195  A    between atoms: _465  and  _466
REMARK  196  A    between atoms: _465  and  _468
REMARK  197  A    between atoms: _471  and  _473
REMARK  198  A    between atoms: _473  and  _474
REMARK  199  A    between atoms: _473  and  _476
REMARK  200  A    between atoms: _476  and  _477
REMARK  201  A    between atoms: _482  and  _483
REMARK                            x       y       z     vdW  Elec       q    Type
REMARK                         _______ _______ _______ _____ _____    ______ ____
ROOT
ATOM      1  O   HOH     1       9.251  33.277  35.458  0.00  0.00    +0.000 OA
ENDROOT
TORSDOF 0
REMARK  Name = ../refined-set-2016/4x8v/4x8v_pocket.pdb
REMARK  201 active torsions:
REMARK  status: ('A' for Active; 'I' for Inactive)
REMARK    1  A    between atoms: _1  and  _3
REMARK    2  A    between atoms: _3  and  _4
REMARK    3  A    between atoms: _3  and  _6
REMARK    4  A    between atoms: _9  and  _11
REMARK    5  A    between atoms: _11  and  _12
REMARK    6  A    between atoms: _11  and  _14
REMARK    7  A    between atoms: _17  and  _19
REMARK    8  A    between atoms: _19  and  _20
REMARK    9  A    between atoms: _19  and  _22
REMARK   10  A    between atoms: _22  and  _23
REMARK   11  A    between atoms: _23  and  _24
REMARK   12  A    between atoms: _29  and  _31
REMARK   13  A    between atoms: _31  and  _32
REMARK   14  A    between atoms: _31  and  _34
REMARK   15  A    between atoms: _34  and  _35
REMARK   16  A    between atoms: _38  and  _40
REMARK   17  A    between atoms: _40  and  _41
REMARK   18  A    between atoms: _40  and  _43
REMARK   19  A    between atoms: _43  and  _44
REMARK   20  A    between atoms: _44  and  _79
REMARK   21  A    between atoms: _45  and  _47
REMARK   22  A    between atoms: _47  and  _48
REMARK   23  A    between atoms: _50  and  _52
REMARK   24  A    between atoms: _52  and  _53
REMARK   25  A    between atoms: _56  and  _58
REMARK   26  A    between atoms: _58  and  _59
REMARK   27  A    between atoms: _62  and  _64
REMARK   28  A    between atoms: _64  and  _65
REMARK   29  A    between atoms: _64  and  _67
REMARK   30  A    between atoms: _67  and  _68
REMARK   31  A    between atoms: _73  and  _75
REMARK   32  A    between atoms: _75  and  _76
REMARK   33  A    between atoms: _75  and  _78
REMARK   34  A    between atoms: _78  and  _79
REMARK   35  A    between atoms: _80  and  _82
REMARK   36  A    between atoms: _82  and  _83
REMARK   37  A    between atoms: _82  and  _85
REMARK   38  A    between atoms: _85  and  _86
REMARK   39  A    between atoms: _92  and  _94
REMARK   40  A    between atoms: _94  and  _95
REMARK   41  A    between atoms: _94  and  _97
REMARK   42  A    between atoms: _97  and  _98
REMARK   43  A    between atoms: _101  and  _103
REMARK   44  A    between atoms: _103  and  _104
REMARK   45  A    between atoms: _103  and  _106
REMARK   46  A    between atoms: _106  and  _107
REMARK   47  A    between atoms: _107  and  _108
REMARK   48  A    between atoms: _108  and  _109
REMARK   49  A    between atoms: _109  and  _110
REMARK   50  A    between atoms: _114  and  _116
REMARK   51  A    between atoms: _116  and  _117
REMARK   52  A    between atoms: _116  and  _119
REMARK   53  A    between atoms: _119  and  _120
REMARK   54  A    between atoms: _123  and  _125
REMARK   55  A    between atoms: _125  and  _126
REMARK   56  A    between atoms: _125  and  _128
REMARK   57  A    between atoms: _128  and  _129
REMARK   58  A    between atoms: _134  and  _135
REMARK   59  A    between atoms: _137  and  _139
REMARK   60  A    between atoms: _139  and  _140
REMARK   61  A    between atoms: _139  and  _142
REMARK   62  A    between atoms: _146  and  _147
REMARK   63  A    between atoms: _152  and  _154
REMARK   64  A    between atoms: _154  and  _155
REMARK   65  A    between atoms: _157  and  _159
REMARK   66  A    between atoms: _159  and  _160
REMARK   67  A    between atoms: _159  and  _162
REMARK   68  A    between atoms: _162  and  _163
REMARK   69  A    between atoms: _166  and  _168
REMARK   70  A    between atoms: _168  and  _169
REMARK   71  A    between atoms: _168  and  _171
REMARK   72  A    between atoms: _171  and  _172
REMARK   73  A    between atoms: _175  and  _177
REMARK   74  A    between atoms: _177  and  _178
REMARK   75  A    between atoms: _177  and  _180
REMARK   76  A    between atoms: _180  and  _181
REMARK   77  A    between atoms: _186  and  _188
REMARK   78  A    between atoms: _188  and  _189
REMARK   79  A    between atoms: _188  and  _191
REMARK   80  A    between atoms: _191  and  _192
REMARK   81  A    between atoms: _195  and  _197
REMARK   82  A    between atoms: _197  and  _198
REMARK   83  A    between atoms: _197  and  _200
REMARK   84  A    between atoms: _203  and  _205
REMARK   85  A    between atoms: _205  and  _206
REMARK   86  A    between atoms: _205  and  _208
REMARK   87  A    between atoms: _208  and  _209
REMARK   88  A    between atoms: _209  and  _210
REMARK   89  A    between atoms: _215  and  _217
REMARK   90  A    between atoms: _217  and  _218
REMARK   91  A    between atoms: _217  and  _220
REMARK   92  A    between atoms: _220  and  _221
REMARK   93  A    between atoms: _224  and  _226
REMARK   94  A    between atoms: _226  and  _227
REMARK   95  A    between atoms: _226  and  _229
REMARK   96  A    between atoms: _229  and  _230
REMARK   97  A    between atoms: _233  and  _235
REMARK   98  A    between atoms: _235  and  _236
REMARK   99  A    between atoms: _235  and  _238
REMARK  100  A    between atoms: _238  and  _239
REMARK  101  A    between atoms: _242  and  _243
REMARK  102  A    between atoms: _248  and  _250
REMARK  103  A    between atoms: _250  and  _251
REMARK  104  A    between atoms: _254  and  _256
REMARK  105  A    between atoms: _256  and  _257
REMARK  106  A    between atoms: _256  and  _259
REMARK  107  A    between atoms: _259  and  _260
REMARK  108  A    between atoms: _265  and  _266
REMARK  109  A    between atoms: _268  and  _270
REMARK  110  A    between atoms: _270  and  _271
REMARK  111  A    between atoms: _270  and  _273
REMARK  112  A    between atoms: _273  and  _274
REMARK  113  A    between atoms: _274  and  _275
REMARK  114  A    between atoms: _275  and  _276
REMARK  115  A    between atoms: _276  and  _277
REMARK  116  A    between atoms: _281  and  _283
REMARK  117  A    between atoms: _283  and  _284
REMARK  118  A    between atoms: _283  and  _286
REMARK  119  A    between atoms: _286  and  _287
REMARK  120  A    between atoms: _290  and  _292
REMARK  121  A    between atoms: _292  and  _293
REMARK  122  A    between atoms: _292  and  _295
REMARK  123  A    between atoms: _295  and  _296
REMARK  124  A    between atoms: _298  and  _300
REMARK  125  A    between atoms: _300  and  _301
REMARK  126  A    between atoms: _300  and  _303
REMARK  127  A    between atoms: _303  and  _304
REMARK  128  A    between atoms: _304  and  _419
REMARK  129  A    between atoms: _305  and  _307
REMARK  130  A    between atoms: _307  and  _308
REMARK  131  A    between atoms: _307  and  _310
REMARK  132  A    between atoms: _310  and  _311
REMARK  133  A    between atoms: _311  and  _312
REMARK  134  A    between atoms: _312  and  _313
REMARK  135  A    between atoms: _313  and  _314
REMARK  136  A    between atoms: _318  and  _320
REMARK  137  A    between atoms: _320  and  _321
REMARK  138  A    between atoms: _323  and  _325
REMARK  139  A    between atoms: _325  and  _326
REMARK  140  A    between atoms: _325  and  _328
REMARK  141  A    between atoms: _328  and  _329
REMARK  142  A    between atoms: _332  and  _334
REMARK  143  A    between atoms: _334  and  _335
REMARK  144  A    between atoms: _334  and  _337
REMARK  145  A    between atoms: _337  and  _338
REMARK  146  A    between atoms: _340  and  _342
REMARK  147  A    between atoms: _342  and  _343
REMARK  148  A    between atoms: _345  and  _347
REMARK  149  A    between atoms: _347  and  _348
REMARK  150  A    between atoms: _350  and  _352
REMARK  151  A    between atoms: _352  and  _353
REMARK  152  A    between atoms: _352  and  _355
REMARK  153  A    between atoms: _355  and  _356
REMARK  154  A    between atoms: _359  and  _361
REMARK  155  A    between atoms: _361  and  _362
REMARK  156  A    between atoms: _361  and  _364
REMARK  157  A    between atoms: _367  and  _369
REMARK  158  A    between atoms: _369  and  _370
REMARK  159  A    between atoms: _369  and  _372
REMARK  160  A    between atoms: _372  and  _373
REMARK  161  A    between atoms: _375  and  _377
REMARK  162  A    between atoms: _377  and  _378
REMARK  163  A    between atoms: _377  and  _380
REMARK  164  A    between atoms: _380  and  _381
REMARK  165  A    between atoms: _391  and  _393
REMARK  166  A    between atoms: _393  and  _394
REMARK  167  A    between atoms: _396  and  _398
REMARK  168  A    between atoms: _398  and  _399
REMARK  169  A    between atoms: _398  and  _401
REMARK  170  A    between atoms: _401  and  _402
REMARK  171  A    between atoms: _402  and  _403
REMARK  172  A    between atoms: _408  and  _410
REMARK  173  A    between atoms: _410  and  _411
REMARK  174  A    between atoms: _413  and  _415
REMARK  175  A    between atoms: _415  and  _416
REMARK  176  A    between atoms: _415  and  _418
REMARK  177  A    between atoms: _418  and  _419
REMARK  178  A    between atoms: _420  and  _422
REMARK  179  A    between atoms: _422  and  _423
REMARK  180  A    between atoms: _426  and  _428
REMARK  181  A    between atoms: _428  and  _429
REMARK  182  A    between atoms: _428  and  _431
REMARK  183  A    between atoms: _431  and  _432
REMARK  184  A    between atoms: _435  and  _437
REMARK  185  A    between atoms: _437  and  _438
REMARK  186  A    between atoms: _437  and  _440
REMARK  187  A    between atoms: _440  and  _441
REMARK  188  A    between atoms: _446  and  _448
REMARK  189  A    between atoms: _448  and  _449
REMARK  190  A    between atoms: _448  and  _451
REMARK  191  A    between atoms: _451  and  _452
REMARK  192  A    between atoms: _458  and  _460
REMARK  193  A    between atoms: _460  and  _461
REMARK  194  A    between atoms: _463  and  _465
REMARK  195  A    between atoms: _465  and  _466
REMARK  196  A    between atoms: _465  and  _468
REMARK  197  A    between atoms: _471  and  _473
REMARK  198  A    between atoms: _473  and  _474
REMARK  199  A    between atoms: _473  and  _476
REMARK  200  A    between atoms: _476  and  _477
REMARK  201  A    between atoms: _482  and  _483
REMARK                            x       y       z     vdW  Elec       q    Type
REMARK                         _______ _______ _______ _____ _____    ______ ____
ROOT
ATOM      1  O   HOH     1       7.118  40.991  15.579  0.00  0.00    +0.000 OA
ENDROOT
TORSDOF 0
REMARK  Name = ../refined-set-2016/4x8v/4x8v_pocket.pdb
REMARK  201 active torsions:
REMARK  status: ('A' for Active; 'I' for Inactive)
REMARK    1  A    between atoms: _1  and  _3
REMARK    2  A    between atoms: _3  and  _4
REMARK    3  A    between atoms: _3  and  _6
REMARK    4  A    between atoms: _9  and  _11
REMARK    5  A    between atoms: _11  and  _12
REMARK    6  A    between atoms: _11  and  _14
REMARK    7  A    between atoms: _17  and  _19
REMARK    8  A    between atoms: _19  and  _20
REMARK    9  A    between atoms: _19  and  _22
REMARK   10  A    between atoms: _22  and  _23
REMARK   11  A    between atoms: _23  and  _24
REMARK   12  A    between atoms: _29  and  _31
REMARK   13  A    between atoms: _31  and  _32
REMARK   14  A    between atoms: _31  and  _34
REMARK   15  A    between atoms: _34  and  _35
REMARK   16  A    between atoms: _38  and  _40
REMARK   17  A    between atoms: _40  and  _41
REMARK   18  A    between atoms: _40  and  _43
REMARK   19  A    between atoms: _43  and  _44
REMARK   20  A    between atoms: _44  and  _79
REMARK   21  A    between atoms: _45  and  _47
REMARK   22  A    between atoms: _47  and  _48
REMARK   23  A    between atoms: _50  and  _52
REMARK   24  A    between atoms: _52  and  _53
REMARK   25  A    between atoms: _56  and  _58
REMARK   26  A    between atoms: _58  and  _59
REMARK   27  A    between atoms: _62  and  _64
REMARK   28  A    between atoms: _64  and  _65
REMARK   29  A    between atoms: _64  and  _67
REMARK   30  A    between atoms: _67  and  _68
REMARK   31  A    between atoms: _73  and  _75
REMARK   32  A    between atoms: _75  and  _76
REMARK   33  A    between atoms: _75  and  _78
REMARK   34  A    between atoms: _78  and  _79
REMARK   35  A    between atoms: _80  and  _82
REMARK   36  A    between atoms: _82  and  _83
REMARK   37  A    between atoms: _82  and  _85
REMARK   38  A    between atoms: _85  and  _86
REMARK   39  A    between atoms: _92  and  _94
REMARK   40  A    between atoms: _94  and  _95
REMARK   41  A    between atoms: _94  and  _97
REMARK   42  A    between atoms: _97  and  _98
REMARK   43  A    between atoms: _101  and  _103
REMARK   44  A    between atoms: _103  and  _104
REMARK   45  A    between atoms: _103  and  _106
REMARK   46  A    between atoms: _106  and  _107
REMARK   47  A    between atoms: _107  and  _108
REMARK   48  A    between atoms: _108  and  _109
REMARK   49  A    between atoms: _109  and  _110
REMARK   50  A    between atoms: _114  and  _116
REMARK   51  A    between atoms: _116  and  _117
REMARK   52  A    between atoms: _116  and  _119
REMARK   53  A    between atoms: _119  and  _120
REMARK   54  A    between atoms: _123  and  _125
REMARK   55  A    between atoms: _125  and  _126
REMARK   56  A    between atoms: _125  and  _128
REMARK   57  A    between atoms: _128  and  _129
REMARK   58  A    between atoms: _134  and  _135
REMARK   59  A    between atoms: _137  and  _139
REMARK   60  A    between atoms: _139  and  _140
REMARK   61  A    between atoms: _139  and  _142
REMARK   62  A    between atoms: _146  and  _147
REMARK   63  A    between atoms: _152  and  _154
REMARK   64  A    between atoms: _154  and  _155
REMARK   65  A    between atoms: _157  and  _159
REMARK   66  A    between atoms: _159  and  _160
REMARK   67  A    between atoms: _159  and  _162
REMARK   68  A    between atoms: _162  and  _163
REMARK   69  A    between atoms: _166  and  _168
REMARK   70  A    between atoms: _168  and  _169
REMARK   71  A    between atoms: _168  and  _171
REMARK   72  A    between atoms: _171  and  _172
REMARK   73  A    between atoms: _175  and  _177
REMARK   74  A    between atoms: _177  and  _178
REMARK   75  A    between atoms: _177  and  _180
REMARK   76  A    between atoms: _180  and  _181
REMARK   77  A    between atoms: _186  and  _188
REMARK   78  A    between atoms: _188  and  _189
REMARK   79  A    between atoms: _188  and  _191
REMARK   80  A    between atoms: _191  and  _192
REMARK   81  A    between atoms: _195  and  _197
REMARK   82  A    between atoms: _197  and  _198
REMARK   83  A    between atoms: _197  and  _200
REMARK   84  A    between atoms: _203  and  _205
REMARK   85  A    between atoms: _205  and  _206
REMARK   86  A    between atoms: _205  and  _208
REMARK   87  A    between atoms: _208  and  _209
REMARK   88  A    between atoms: _209  and  _210
REMARK   89  A    between atoms: _215  and  _217
REMARK   90  A    between atoms: _217  and  _218
REMARK   91  A    between atoms: _217  and  _220
REMARK   92  A    between atoms: _220  and  _221
REMARK   93  A    between atoms: _224  and  _226
REMARK   94  A    between atoms: _226  and  _227
REMARK   95  A    between atoms: _226  and  _229
REMARK   96  A    between atoms: _229  and  _230
REMARK   97  A    between atoms: _233  and  _235
REMARK   98  A    between atoms: _235  and  _236
REMARK   99  A    between atoms: _235  and  _238
REMARK  100  A    between atoms: _238  and  _239
REMARK  101  A    between atoms: _242  and  _243
REMARK  102  A    between atoms: _248  and  _250
REMARK  103  A    between atoms: _250  and  _251
REMARK  104  A    between atoms: _254  and  _256
REMARK  105  A    between atoms: _256  and  _257
REMARK  106  A    between atoms: _256  and  _259
REMARK  107  A    between atoms: _259  and  _260
REMARK  108  A    between atoms: _265  and  _266
REMARK  109  A    between atoms: _268  and  _270
REMARK  110  A    between atoms: _270  and  _271
REMARK  111  A    between atoms: _270  and  _273
REMARK  112  A    between atoms: _273  and  _274
REMARK  113  A    between atoms: _274  and  _275
REMARK  114  A    between atoms: _275  and  _276
REMARK  115  A    between atoms: _276  and  _277
REMARK  116  A    between atoms: _281  and  _283
REMARK  117  A    between atoms: _283  and  _284
REMARK  118  A    between atoms: _283  and  _286
REMARK  119  A    between atoms: _286  and  _287
REMARK  120  A    between atoms: _290  and  _292
REMARK  121  A    between atoms: _292  and  _293
REMARK  122  A    between atoms: _292  and  _295
REMARK  123  A    between atoms: _295  and  _296
REMARK  124  A    between atoms: _298  and  _300
REMARK  125  A    between atoms: _300  and  _301
REMARK  126  A    between atoms: _300  and  _303
REMARK  127  A    between atoms: _303  and  _304
REMARK  128  A    between atoms: _304  and  _419
REMARK  129  A    between atoms: _305  and  _307
REMARK  130  A    between atoms: _307  and  _308
REMARK  131  A    between atoms: _307  and  _310
REMARK  132  A    between atoms: _310  and  _311
REMARK  133  A    between atoms: _311  and  _312
REMARK  134  A    between atoms: _312  and  _313
REMARK  135  A    between atoms: _313  and  _314
REMARK  136  A    between atoms: _318  and  _320
REMARK  137  A    between atoms: _320  and  _321
REMARK  138  A    between atoms: _323  and  _325
REMARK  139  A    between atoms: _325  and  _326
REMARK  140  A    between atoms: _325  and  _328
REMARK  141  A    between atoms: _328  and  _329
REMARK  142  A    between atoms: _332  and  _334
REMARK  143  A    between atoms: _334  and  _335
REMARK  144  A    between atoms: _334  and  _337
REMARK  145  A    between atoms: _337  and  _338
REMARK  146  A    between atoms: _340  and  _342
REMARK  147  A    between atoms: _342  and  _343
REMARK  148  A    between atoms: _345  and  _347
REMARK  149  A    between atoms: _347  and  _348
REMARK  150  A    between atoms: _350  and  _352
REMARK  151  A    between atoms: _352  and  _353
REMARK  152  A    between atoms: _352  and  _355
REMARK  153  A    between atoms: _355  and  _356
REMARK  154  A    between atoms: _359  and  _361
REMARK  155  A    between atoms: _361  and  _362
REMARK  156  A    between atoms: _361  and  _364
REMARK  157  A    between atoms: _367  and  _369
REMARK  158  A    between atoms: _369  and  _370
REMARK  159  A    between atoms: _369  and  _372
REMARK  160  A    between atoms: _372  and  _373
REMARK  161  A    between atoms: _375  and  _377
REMARK  162  A    between atoms: _377  and  _378
REMARK  163  A    between atoms: _377  and  _380
REMARK  164  A    between atoms: _380  and  _381
REMARK  165  A    between atoms: _391  and  _393
REMARK  166  A    between atoms: _393  and  _394
REMARK  167  A    between atoms: _396  and  _398
REMARK  168  A    between atoms: _398  and  _399
REMARK  169  A    between atoms: _398  and  _401
REMARK  170  A    between atoms: _401  and  _402
REMARK  171  A    between atoms: _402  and  _403
REMARK  172  A    between atoms: _408  and  _410
REMARK  173  A    between atoms: _410  and  _411
REMARK  174  A    between atoms: _413  and  _415
REMARK  175  A    between atoms: _415  and  _416
REMARK  176  A    between atoms: _415  and  _418
REMARK  177  A    between atoms: _418  and  _419
REMARK  178  A    between atoms: _420  and  _422
REMARK  179  A    between atoms: _422  and  _423
REMARK  180  A    between atoms: _426  and  _428
REMARK  181  A    between atoms: _428  and  _429
REMARK  182  A    between atoms: _428  and  _431
REMARK  183  A    between atoms: _431  and  _432
REMARK  184  A    between atoms: _435  and  _437
REMARK  185  A    between atoms: _437  and  _438
REMARK  186  A    between atoms: _437  and  _440
REMARK  187  A    between atoms: _440  and  _441
REMARK  188  A    between atoms: _446  and  _448
REMARK  189  A    between atoms: _448  and  _449
REMARK  190  A    between atoms: _448  and  _451
REMARK  191  A    between atoms: _451  and  _452
REMARK  192  A    between atoms: _458  and  _460
REMARK  193  A    between atoms: _460  and  _461
REMARK  194  A    between atoms: _463  and  _465
REMARK  195  A    between atoms: _465  and  _466
REMARK  196  A    between atoms: _465  and  _468
REMARK  197  A    between atoms: _471  and  _473
REMARK  198  A    between atoms: _473  and  _474
REMARK  199  A    between atoms: _473  and  _476
REMARK  200  A    between atoms: _476  and  _477
REMARK  201  A    between atoms: _482  and  _483
REMARK                            x       y       z     vdW  Elec       q    Type
REMARK                         _______ _______ _______ _____ _____    ______ ____
ROOT
ATOM      1  O   HOH     1      -3.059  33.340  25.434  0.00  0.00    +0.000 OA
ENDROOT
TORSDOF 0
REMARK  Name = ../refined-set-2016/4x8v/4x8v_pocket.pdb
REMARK  201 active torsions:
REMARK  status: ('A' for Active; 'I' for Inactive)
REMARK    1  A    between atoms: _1  and  _3
REMARK    2  A    between atoms: _3  and  _4
REMARK    3  A    between atoms: _3  and  _6
REMARK    4  A    between atoms: _9  and  _11
REMARK    5  A    between atoms: _11  and  _12
REMARK    6  A    between atoms: _11  and  _14
REMARK    7  A    between atoms: _17  and  _19
REMARK    8  A    between atoms: _19  and  _20
REMARK    9  A    between atoms: _19  and  _22
REMARK   10  A    between atoms: _22  and  _23
REMARK   11  A    between atoms: _23  and  _24
REMARK   12  A    between atoms: _29  and  _31
REMARK   13  A    between atoms: _31  and  _32
REMARK   14  A    between atoms: _31  and  _34
REMARK   15  A    between atoms: _34  and  _35
REMARK   16  A    between atoms: _38  and  _40
REMARK   17  A    between atoms: _40  and  _41
REMARK   18  A    between atoms: _40  and  _43
REMARK   19  A    between atoms: _43  and  _44
REMARK   20  A    between atoms: _44  and  _79
REMARK   21  A    between atoms: _45  and  _47
REMARK   22  A    between atoms: _47  and  _48
REMARK   23  A    between atoms: _50  and  _52
REMARK   24  A    between atoms: _52  and  _53
REMARK   25  A    between atoms: _56  and  _58
REMARK   26  A    between atoms: _58  and  _59
REMARK   27  A    between atoms: _62  and  _64
REMARK   28  A    between atoms: _64  and  _65
REMARK   29  A    between atoms: _64  and  _67
REMARK   30  A    between atoms: _67  and  _68
REMARK   31  A    between atoms: _73  and  _75
REMARK   32  A    between atoms: _75  and  _76
REMARK   33  A    between atoms: _75  and  _78
REMARK   34  A    between atoms: _78  and  _79
REMARK   35  A    between atoms: _80  and  _82
REMARK   36  A    between atoms: _82  and  _83
REMARK   37  A    between atoms: _82  and  _85
REMARK   38  A    between atoms: _85  and  _86
REMARK   39  A    between atoms: _92  and  _94
REMARK   40  A    between atoms: _94  and  _95
REMARK   41  A    between atoms: _94  and  _97
REMARK   42  A    between atoms: _97  and  _98
REMARK   43  A    between atoms: _101  and  _103
REMARK   44  A    between atoms: _103  and  _104
REMARK   45  A    between atoms: _103  and  _106
REMARK   46  A    between atoms: _106  and  _107
REMARK   47  A    between atoms: _107  and  _108
REMARK   48  A    between atoms: _108  and  _109
REMARK   49  A    between atoms: _109  and  _110
REMARK   50  A    between atoms: _114  and  _116
REMARK   51  A    between atoms: _116  and  _117
REMARK   52  A    between atoms: _116  and  _119
REMARK   53  A    between atoms: _119  and  _120
REMARK   54  A    between atoms: _123  and  _125
REMARK   55  A    between atoms: _125  and  _126
REMARK   56  A    between atoms: _125  and  _128
REMARK   57  A    between atoms: _128  and  _129
REMARK   58  A    between atoms: _134  and  _135
REMARK   59  A    between atoms: _137  and  _139
REMARK   60  A    between atoms: _139  and  _140
REMARK   61  A    between atoms: _139  and  _142
REMARK   62  A    between atoms: _146  and  _147
REMARK   63  A    between atoms: _152  and  _154
REMARK   64  A    between atoms: _154  and  _155
REMARK   65  A    between atoms: _157  and  _159
REMARK   66  A    between atoms: _159  and  _160
REMARK   67  A    between atoms: _159  and  _162
REMARK   68  A    between atoms: _162  and  _163
REMARK   69  A    between atoms: _166  and  _168
REMARK   70  A    between atoms: _168  and  _169
REMARK   71  A    between atoms: _168  and  _171
REMARK   72  A    between atoms: _171  and  _172
REMARK   73  A    between atoms: _175  and  _177
REMARK   74  A    between atoms: _177  and  _178
REMARK   75  A    between atoms: _177  and  _180
REMARK   76  A    between atoms: _180  and  _181
REMARK   77  A    between atoms: _186  and  _188
REMARK   78  A    between atoms: _188  and  _189
REMARK   79  A    between atoms: _188  and  _191
REMARK   80  A    between atoms: _191  and  _192
REMARK   81  A    between atoms: _195  and  _197
REMARK   82  A    between atoms: _197  and  _198
REMARK   83  A    between atoms: _197  and  _200
REMARK   84  A    between atoms: _203  and  _205
REMARK   85  A    between atoms: _205  and  _206
REMARK   86  A    between atoms: _205  and  _208
REMARK   87  A    between atoms: _208  and  _209
REMARK   88  A    between atoms: _209  and  _210
REMARK   89  A    between atoms: _215  and  _217
REMARK   90  A    between atoms: _217  and  _218
REMARK   91  A    between atoms: _217  and  _220
REMARK   92  A    between atoms: _220  and  _221
REMARK   93  A    between atoms: _224  and  _226
REMARK   94  A    between atoms: _226  and  _227
REMARK   95  A    between atoms: _226  and  _229
REMARK   96  A    between atoms: _229  and  _230
REMARK   97  A    between atoms: _233  and  _235
REMARK   98  A    between atoms: _235  and  _236
REMARK   99  A    between atoms: _235  and  _238
REMARK  100  A    between atoms: _238  and  _239
REMARK  101  A    between atoms: _242  and  _243
REMARK  102  A    between atoms: _248  and  _250
REMARK  103  A    between atoms: _250  and  _251
REMARK  104  A    between atoms: _254  and  _256
REMARK  105  A    between atoms: _256  and  _257
REMARK  106  A    between atoms: _256  and  _259
REMARK  107  A    between atoms: _259  and  _260
REMARK  108  A    between atoms: _265  and  _266
REMARK  109  A    between atoms: _268  and  _270
REMARK  110  A    between atoms: _270  and  _271
REMARK  111  A    between atoms: _270  and  _273
REMARK  112  A    between atoms: _273  and  _274
REMARK  113  A    between atoms: _274  and  _275
REMARK  114  A    between atoms: _275  and  _276
REMARK  115  A    between atoms: _276  and  _277
REMARK  116  A    between atoms: _281  and  _283
REMARK  117  A    between atoms: _283  and  _284
REMARK  118  A    between atoms: _283  and  _286
REMARK  119  A    between atoms: _286  and  _287
REMARK  120  A    between atoms: _290  and  _292
REMARK  121  A    between atoms: _292  and  _293
REMARK  122  A    between atoms: _292  and  _295
REMARK  123  A    between atoms: _295  and  _296
REMARK  124  A    between atoms: _298  and  _300
REMARK  125  A    between atoms: _300  and  _301
REMARK  126  A    between atoms: _300  and  _303
REMARK  127  A    between atoms: _303  and  _304
REMARK  128  A    between atoms: _304  and  _419
REMARK  129  A    between atoms: _305  and  _307
REMARK  130  A    between atoms: _307  and  _308
REMARK  131  A    between atoms: _307  and  _310
REMARK  132  A    between atoms: _310  and  _311
REMARK  133  A    between atoms: _311  and  _312
REMARK  134  A    between atoms: _312  and  _313
REMARK  135  A    between atoms: _313  and  _314
REMARK  136  A    between atoms: _318  and  _320
REMARK  137  A    between atoms: _320  and  _321
REMARK  138  A    between atoms: _323  and  _325
REMARK  139  A    between atoms: _325  and  _326
REMARK  140  A    between atoms: _325  and  _328
REMARK  141  A    between atoms: _328  and  _329
REMARK  142  A    between atoms: _332  and  _334
REMARK  143  A    between atoms: _334  and  _335
REMARK  144  A    between atoms: _334  and  _337
REMARK  145  A    between atoms: _337  and  _338
REMARK  146  A    between atoms: _340  and  _342
REMARK  147  A    between atoms: _342  and  _343
REMARK  148  A    between atoms: _345  and  _347
REMARK  149  A    between atoms: _347  and  _348
REMARK  150  A    between atoms: _350  and  _352
REMARK  151  A    between atoms: _352  and  _353
REMARK  152  A    between atoms: _352  and  _355
REMARK  153  A    between atoms: _355  and  _356
REMARK  154  A    between atoms: _359  and  _361
REMARK  155  A    between atoms: _361  and  _362
REMARK  156  A    between atoms: _361  and  _364
REMARK  157  A    between atoms: _367  and  _369
REMARK  158  A    between atoms: _369  and  _370
REMARK  159  A    between atoms: _369  and  _372
REMARK  160  A    between atoms: _372  and  _373
REMARK  161  A    between atoms: _375  and  _377
REMARK  162  A    between atoms: _377  and  _378
REMARK  163  A    between atoms: _377  and  _380
REMARK  164  A    between atoms: _380  and  _381
REMARK  165  A    between atoms: _391  and  _393
REMARK  166  A    between atoms: _393  and  _394
REMARK  167  A    between atoms: _396  and  _398
REMARK  168  A    between atoms: _398  and  _399
REMARK  169  A    between atoms: _398  and  _401
REMARK  170  A    between atoms: _401  and  _402
REMARK  171  A    between atoms: _402  and  _403
REMARK  172  A    between atoms: _408  and  _410
REMARK  173  A    between atoms: _410  and  _411
REMARK  174  A    between atoms: _413  and  _415
REMARK  175  A    between atoms: _415  and  _416
REMARK  176  A    between atoms: _415  and  _418
REMARK  177  A    between atoms: _418  and  _419
REMARK  178  A    between atoms: _420  and  _422
REMARK  179  A    between atoms: _422  and  _423
REMARK  180  A    between atoms: _426  and  _428
REMARK  181  A    between atoms: _428  and  _429
REMARK  182  A    between atoms: _428  and  _431
REMARK  183  A    between atoms: _431  and  _432
REMARK  184  A    between atoms: _435  and  _437
REMARK  185  A    between atoms: _437  and  _438
REMARK  186  A    between atoms: _437  and  _440
REMARK  187  A    between atoms: _440  and  _441
REMARK  188  A    between atoms: _446  and  _448
REMARK  189  A    between atoms: _448  and  _449
REMARK  190  A    between atoms: _448  and  _451
REMARK  191  A    between atoms: _451  and  _452
REMARK  192  A    between atoms: _458  and  _460
REMARK  193  A    between atoms: _460  and  _461
REMARK  194  A    between atoms: _463  and  _465
REMARK  195  A    between atoms: _465  and  _466
REMARK  196  A    between atoms: _465  and  _468
REMARK  197  A    between atoms: _471  and  _473
REMARK  198  A    between atoms: _473  and  _474
REMARK  199  A    between atoms: _473  and  _476
REMARK  200  A    between atoms: _476  and  _477
REMARK  201  A    between atoms: _482  and  _483
REMARK                            x       y       z     vdW  Elec       q    Type
REMARK                         _______ _______ _______ _____ _____    ______ ____
ROOT
ATOM      1  O   HOH     1       3.054  28.433  23.621  0.00  0.00    +0.000 OA
ENDROOT
TORSDOF 0
REMARK  Name = ../refined-set-2016/4x8v/4x8v_pocket.pdb
REMARK  201 active torsions:
REMARK  status: ('A' for Active; 'I' for Inactive)
REMARK    1  A    between atoms: _1  and  _3
REMARK    2  A    between atoms: _3  and  _4
REMARK    3  A    between atoms: _3  and  _6
REMARK    4  A    between atoms: _9  and  _11
REMARK    5  A    between atoms: _11  and  _12
REMARK    6  A    between atoms: _11  and  _14
REMARK    7  A    between atoms: _17  and  _19
REMARK    8  A    between atoms: _19  and  _20
REMARK    9  A    between atoms: _19  and  _22
REMARK   10  A    between atoms: _22  and  _23
REMARK   11  A    between atoms: _23  and  _24
REMARK   12  A    between atoms: _29  and  _31
REMARK   13  A    between atoms: _31  and  _32
REMARK   14  A    between atoms: _31  and  _34
REMARK   15  A    between atoms: _34  and  _35
REMARK   16  A    between atoms: _38  and  _40
REMARK   17  A    between atoms: _40  and  _41
REMARK   18  A    between atoms: _40  and  _43
REMARK   19  A    between atoms: _43  and  _44
REMARK   20  A    between atoms: _44  and  _79
REMARK   21  A    between atoms: _45  and  _47
REMARK   22  A    between atoms: _47  and  _48
REMARK   23  A    between atoms: _50  and  _52
REMARK   24  A    between atoms: _52  and  _53
REMARK   25  A    between atoms: _56  and  _58
REMARK   26  A    between atoms: _58  and  _59
REMARK   27  A    between atoms: _62  and  _64
REMARK   28  A    between atoms: _64  and  _65
REMARK   29  A    between atoms: _64  and  _67
REMARK   30  A    between atoms: _67  and  _68
REMARK   31  A    between atoms: _73  and  _75
REMARK   32  A    between atoms: _75  and  _76
REMARK   33  A    between atoms: _75  and  _78
REMARK   34  A    between atoms: _78  and  _79
REMARK   35  A    between atoms: _80  and  _82
REMARK   36  A    between atoms: _82  and  _83
REMARK   37  A    between atoms: _82  and  _85
REMARK   38  A    between atoms: _85  and  _86
REMARK   39  A    between atoms: _92  and  _94
REMARK   40  A    between atoms: _94  and  _95
REMARK   41  A    between atoms: _94  and  _97
REMARK   42  A    between atoms: _97  and  _98
REMARK   43  A    between atoms: _101  and  _103
REMARK   44  A    between atoms: _103  and  _104
REMARK   45  A    between atoms: _103  and  _106
REMARK   46  A    between atoms: _106  and  _107
REMARK   47  A    between atoms: _107  and  _108
REMARK   48  A    between atoms: _108  and  _109
REMARK   49  A    between atoms: _109  and  _110
REMARK   50  A    between atoms: _114  and  _116
REMARK   51  A    between atoms: _116  and  _117
REMARK   52  A    between atoms: _116  and  _119
REMARK   53  A    between atoms: _119  and  _120
REMARK   54  A    between atoms: _123  and  _125
REMARK   55  A    between atoms: _125  and  _126
REMARK   56  A    between atoms: _125  and  _128
REMARK   57  A    between atoms: _128  and  _129
REMARK   58  A    between atoms: _134  and  _135
REMARK   59  A    between atoms: _137  and  _139
REMARK   60  A    between atoms: _139  and  _140
REMARK   61  A    between atoms: _139  and  _142
REMARK   62  A    between atoms: _146  and  _147
REMARK   63  A    between atoms: _152  and  _154
REMARK   64  A    between atoms: _154  and  _155
REMARK   65  A    between atoms: _157  and  _159
REMARK   66  A    between atoms: _159  and  _160
REMARK   67  A    between atoms: _159  and  _162
REMARK   68  A    between atoms: _162  and  _163
REMARK   69  A    between atoms: _166  and  _168
REMARK   70  A    between atoms: _168  and  _169
REMARK   71  A    between atoms: _168  and  _171
REMARK   72  A    between atoms: _171  and  _172
REMARK   73  A    between atoms: _175  and  _177
REMARK   74  A    between atoms: _177  and  _178
REMARK   75  A    between atoms: _177  and  _180
REMARK   76  A    between atoms: _180  and  _181
REMARK   77  A    between atoms: _186  and  _188
REMARK   78  A    between atoms: _188  and  _189
REMARK   79  A    between atoms: _188  and  _191
REMARK   80  A    between atoms: _191  and  _192
REMARK   81  A    between atoms: _195  and  _197
REMARK   82  A    between atoms: _197  and  _198
REMARK   83  A    between atoms: _197  and  _200
REMARK   84  A    between atoms: _203  and  _205
REMARK   85  A    between atoms: _205  and  _206
REMARK   86  A    between atoms: _205  and  _208
REMARK   87  A    between atoms: _208  and  _209
REMARK   88  A    between atoms: _209  and  _210
REMARK   89  A    between atoms: _215  and  _217
REMARK   90  A    between atoms: _217  and  _218
REMARK   91  A    between atoms: _217  and  _220
REMARK   92  A    between atoms: _220  and  _221
REMARK   93  A    between atoms: _224  and  _226
REMARK   94  A    between atoms: _226  and  _227
REMARK   95  A    between atoms: _226  and  _229
REMARK   96  A    between atoms: _229  and  _230
REMARK   97  A    between atoms: _233  and  _235
REMARK   98  A    between atoms: _235  and  _236
REMARK   99  A    between atoms: _235  and  _238
REMARK  100  A    between atoms: _238  and  _239
REMARK  101  A    between atoms: _242  and  _243
REMARK  102  A    between atoms: _248  and  _250
REMARK  103  A    between atoms: _250  and  _251
REMARK  104  A    between atoms: _254  and  _256
REMARK  105  A    between atoms: _256  and  _257
REMARK  106  A    between atoms: _256  and  _259
REMARK  107  A    between atoms: _259  and  _260
REMARK  108  A    between atoms: _265  and  _266
REMARK  109  A    between atoms: _268  and  _270
REMARK  110  A    between atoms: _270  and  _271
REMARK  111  A    between atoms: _270  and  _273
REMARK  112  A    between atoms: _273  and  _274
REMARK  113  A    between atoms: _274  and  _275
REMARK  114  A    between atoms: _275  and  _276
REMARK  115  A    between atoms: _276  and  _277
REMARK  116  A    between atoms: _281  and  _283
REMARK  117  A    between atoms: _283  and  _284
REMARK  118  A    between atoms: _283  and  _286
REMARK  119  A    between atoms: _286  and  _287
REMARK  120  A    between atoms: _290  and  _292
REMARK  121  A    between atoms: _292  and  _293
REMARK  122  A    between atoms: _292  and  _295
REMARK  123  A    between atoms: _295  and  _296
REMARK  124  A    between atoms: _298  and  _300
REMARK  125  A    between atoms: _300  and  _301
REMARK  126  A    between atoms: _300  and  _303
REMARK  127  A    between atoms: _303  and  _304
REMARK  128  A    between atoms: _304  and  _419
REMARK  129  A    between atoms: _305  and  _307
REMARK  130  A    between atoms: _307  and  _308
REMARK  131  A    between atoms: _307  and  _310
REMARK  132  A    between atoms: _310  and  _311
REMARK  133  A    between atoms: _311  and  _312
REMARK  134  A    between atoms: _312  and  _313
REMARK  135  A    between atoms: _313  and  _314
REMARK  136  A    between atoms: _318  and  _320
REMARK  137  A    between atoms: _320  and  _321
REMARK  138  A    between atoms: _323  and  _325
REMARK  139  A    between atoms: _325  and  _326
REMARK  140  A    between atoms: _325  and  _328
REMARK  141  A    between atoms: _328  and  _329
REMARK  142  A    between atoms: _332  and  _334
REMARK  143  A    between atoms: _334  and  _335
REMARK  144  A    between atoms: _334  and  _337
REMARK  145  A    between atoms: _337  and  _338
REMARK  146  A    between atoms: _340  and  _342
REMARK  147  A    between atoms: _342  and  _343
REMARK  148  A    between atoms: _345  and  _347
REMARK  149  A    between atoms: _347  and  _348
REMARK  150  A    between atoms: _350  and  _352
REMARK  151  A    between atoms: _352  and  _353
REMARK  152  A    between atoms: _352  and  _355
REMARK  153  A    between atoms: _355  and  _356
REMARK  154  A    between atoms: _359  and  _361
REMARK  155  A    between atoms: _361  and  _362
REMARK  156  A    between atoms: _361  and  _364
REMARK  157  A    between atoms: _367  and  _369
REMARK  158  A    between atoms: _369  and  _370
REMARK  159  A    between atoms: _369  and  _372
REMARK  160  A    between atoms: _372  and  _373
REMARK  161  A    between atoms: _375  and  _377
REMARK  162  A    between atoms: _377  and  _378
REMARK  163  A    between atoms: _377  and  _380
REMARK  164  A    between atoms: _380  and  _381
REMARK  165  A    between atoms: _391  and  _393
REMARK  166  A    between atoms: _393  and  _394
REMARK  167  A    between atoms: _396  and  _398
REMARK  168  A    between atoms: _398  and  _399
REMARK  169  A    between atoms: _398  and  _401
REMARK  170  A    between atoms: _401  and  _402
REMARK  171  A    between atoms: _402  and  _403
REMARK  172  A    between atoms: _408  and  _410
REMARK  173  A    between atoms: _410  and  _411
REMARK  174  A    between atoms: _413  and  _415
REMARK  175  A    between atoms: _415  and  _416
REMARK  176  A    between atoms: _415  and  _418
REMARK  177  A    between atoms: _418  and  _419
REMARK  178  A    between atoms: _420  and  _422
REMARK  179  A    between atoms: _422  and  _423
REMARK  180  A    between atoms: _426  and  _428
REMARK  181  A    between atoms: _428  and  _429
REMARK  182  A    between atoms: _428  and  _431
REMARK  183  A    between atoms: _431  and  _432
REMARK  184  A    between atoms: _435  and  _437
REMARK  185  A    between atoms: _437  and  _438
REMARK  186  A    between atoms: _437  and  _440
REMARK  187  A    between atoms: _440  and  _441
REMARK  188  A    between atoms: _446  and  _448
REMARK  189  A    between atoms: _448  and  _449
REMARK  190  A    between atoms: _448  and  _451
REMARK  191  A    between atoms: _451  and  _452
REMARK  192  A    between atoms: _458  and  _460
REMARK  193  A    between atoms: _460  and  _461
REMARK  194  A    between atoms: _463  and  _465
REMARK  195  A    between atoms: _465  and  _466
REMARK  196  A    between atoms: _465  and  _468
REMARK  197  A    between atoms: _471  and  _473
REMARK  198  A    between atoms: _473  and  _474
REMARK  199  A    between atoms: _473  and  _476
REMARK  200  A    between atoms: _476  and  _477
REMARK  201  A    between atoms: _482  and  _483
REMARK                            x       y       z     vdW  Elec       q    Type
REMARK                         _______ _______ _______ _____ _____    ______ ____
ROOT
ATOM      1  O   HOH     1      -2.153  40.552  22.919  0.00  0.00    +0.000 OA
ENDROOT
TORSDOF 0
REMARK  Name = ../refined-set-2016/4x8v/4x8v_pocket.pdb
REMARK  201 active torsions:
REMARK  status: ('A' for Active; 'I' for Inactive)
REMARK    1  A    between atoms: _1  and  _3
REMARK    2  A    between atoms: _3  and  _4
REMARK    3  A    between atoms: _3  and  _6
REMARK    4  A    between atoms: _9  and  _11
REMARK    5  A    between atoms: _11  and  _12
REMARK    6  A    between atoms: _11  and  _14
REMARK    7  A    between atoms: _17  and  _19
REMARK    8  A    between atoms: _19  and  _20
REMARK    9  A    between atoms: _19  and  _22
REMARK   10  A    between atoms: _22  and  _23
REMARK   11  A    between atoms: _23  and  _24
REMARK   12  A    between atoms: _29  and  _31
REMARK   13  A    between atoms: _31  and  _32
REMARK   14  A    between atoms: _31  and  _34
REMARK   15  A    between atoms: _34  and  _35
REMARK   16  A    between atoms: _38  and  _40
REMARK   17  A    between atoms: _40  and  _41
REMARK   18  A    between atoms: _40  and  _43
REMARK   19  A    between atoms: _43  and  _44
REMARK   20  A    between atoms: _44  and  _79
REMARK   21  A    between atoms: _45  and  _47
REMARK   22  A    between atoms: _47  and  _48
REMARK   23  A    between atoms: _50  and  _52
REMARK   24  A    between atoms: _52  and  _53
REMARK   25  A    between atoms: _56  and  _58
REMARK   26  A    between atoms: _58  and  _59
REMARK   27  A    between atoms: _62  and  _64
REMARK   28  A    between atoms: _64  and  _65
REMARK   29  A    between atoms: _64  and  _67
REMARK   30  A    between atoms: _67  and  _68
REMARK   31  A    between atoms: _73  and  _75
REMARK   32  A    between atoms: _75  and  _76
REMARK   33  A    between atoms: _75  and  _78
REMARK   34  A    between atoms: _78  and  _79
REMARK   35  A    between atoms: _80  and  _82
REMARK   36  A    between atoms: _82  and  _83
REMARK   37  A    between atoms: _82  and  _85
REMARK   38  A    between atoms: _85  and  _86
REMARK   39  A    between atoms: _92  and  _94
REMARK   40  A    between atoms: _94  and  _95
REMARK   41  A    between atoms: _94  and  _97
REMARK   42  A    between atoms: _97  and  _98
REMARK   43  A    between atoms: _101  and  _103
REMARK   44  A    between atoms: _103  and  _104
REMARK   45  A    between atoms: _103  and  _106
REMARK   46  A    between atoms: _106  and  _107
REMARK   47  A    between atoms: _107  and  _108
REMARK   48  A    between atoms: _108  and  _109
REMARK   49  A    between atoms: _109  and  _110
REMARK   50  A    between atoms: _114  and  _116
REMARK   51  A    between atoms: _116  and  _117
REMARK   52  A    between atoms: _116  and  _119
REMARK   53  A    between atoms: _119  and  _120
REMARK   54  A    between atoms: _123  and  _125
REMARK   55  A    between atoms: _125  and  _126
REMARK   56  A    between atoms: _125  and  _128
REMARK   57  A    between atoms: _128  and  _129
REMARK   58  A    between atoms: _134  and  _135
REMARK   59  A    between atoms: _137  and  _139
REMARK   60  A    between atoms: _139  and  _140
REMARK   61  A    between atoms: _139  and  _142
REMARK   62  A    between atoms: _146  and  _147
REMARK   63  A    between atoms: _152  and  _154
REMARK   64  A    between atoms: _154  and  _155
REMARK   65  A    between atoms: _157  and  _159
REMARK   66  A    between atoms: _159  and  _160
REMARK   67  A    between atoms: _159  and  _162
REMARK   68  A    between atoms: _162  and  _163
REMARK   69  A    between atoms: _166  and  _168
REMARK   70  A    between atoms: _168  and  _169
REMARK   71  A    between atoms: _168  and  _171
REMARK   72  A    between atoms: _171  and  _172
REMARK   73  A    between atoms: _175  and  _177
REMARK   74  A    between atoms: _177  and  _178
REMARK   75  A    between atoms: _177  and  _180
REMARK   76  A    between atoms: _180  and  _181
REMARK   77  A    between atoms: _186  and  _188
REMARK   78  A    between atoms: _188  and  _189
REMARK   79  A    between atoms: _188  and  _191
REMARK   80  A    between atoms: _191  and  _192
REMARK   81  A    between atoms: _195  and  _197
REMARK   82  A    between atoms: _197  and  _198
REMARK   83  A    between atoms: _197  and  _200
REMARK   84  A    between atoms: _203  and  _205
REMARK   85  A    between atoms: _205  and  _206
REMARK   86  A    between atoms: _205  and  _208
REMARK   87  A    between atoms: _208  and  _209
REMARK   88  A    between atoms: _209  and  _210
REMARK   89  A    between atoms: _215  and  _217
REMARK   90  A    between atoms: _217  and  _218
REMARK   91  A    between atoms: _217  and  _220
REMARK   92  A    between atoms: _220  and  _221
REMARK   93  A    between atoms: _224  and  _226
REMARK   94  A    between atoms: _226  and  _227
REMARK   95  A    between atoms: _226  and  _229
REMARK   96  A    between atoms: _229  and  _230
REMARK   97  A    between atoms: _233  and  _235
REMARK   98  A    between atoms: _235  and  _236
REMARK   99  A    between atoms: _235  and  _238
REMARK  100  A    between atoms: _238  and  _239
REMARK  101  A    between atoms: _242  and  _243
REMARK  102  A    between atoms: _248  and  _250
REMARK  103  A    between atoms: _250  and  _251
REMARK  104  A    between atoms: _254  and  _256
REMARK  105  A    between atoms: _256  and  _257
REMARK  106  A    between atoms: _256  and  _259
REMARK  107  A    between atoms: _259  and  _260
REMARK  108  A    between atoms: _265  and  _266
REMARK  109  A    between atoms: _268  and  _270
REMARK  110  A    between atoms: _270  and  _271
REMARK  111  A    between atoms: _270  and  _273
REMARK  112  A    between atoms: _273  and  _274
REMARK  113  A    between atoms: _274  and  _275
REMARK  114  A    between atoms: _275  and  _276
REMARK  115  A    between atoms: _276  and  _277
REMARK  116  A    between atoms: _281  and  _283
REMARK  117  A    between atoms: _283  and  _284
REMARK  118  A    between atoms: _283  and  _286
REMARK  119  A    between atoms: _286  and  _287
REMARK  120  A    between atoms: _290  and  _292
REMARK  121  A    between atoms: _292  and  _293
REMARK  122  A    between atoms: _292  and  _295
REMARK  123  A    between atoms: _295  and  _296
REMARK  124  A    between atoms: _298  and  _300
REMARK  125  A    between atoms: _300  and  _301
REMARK  126  A    between atoms: _300  and  _303
REMARK  127  A    between atoms: _303  and  _304
REMARK  128  A    between atoms: _304  and  _419
REMARK  129  A    between atoms: _305  and  _307
REMARK  130  A    between atoms: _307  and  _308
REMARK  131  A    between atoms: _307  and  _310
REMARK  132  A    between atoms: _310  and  _311
REMARK  133  A    between atoms: _311  and  _312
REMARK  134  A    between atoms: _312  and  _313
REMARK  135  A    between atoms: _313  and  _314
REMARK  136  A    between atoms: _318  and  _320
REMARK  137  A    between atoms: _320  and  _321
REMARK  138  A    between atoms: _323  and  _325
REMARK  139  A    between atoms: _325  and  _326
REMARK  140  A    between atoms: _325  and  _328
REMARK  141  A    between atoms: _328  and  _329
REMARK  142  A    between atoms: _332  and  _334
REMARK  143  A    between atoms: _334  and  _335
REMARK  144  A    between atoms: _334  and  _337
REMARK  145  A    between atoms: _337  and  _338
REMARK  146  A    between atoms: _340  and  _342
REMARK  147  A    between atoms: _342  and  _343
REMARK  148  A    between atoms: _345  and  _347
REMARK  149  A    between atoms: _347  and  _348
REMARK  150  A    between atoms: _350  and  _352
REMARK  151  A    between atoms: _352  and  _353
REMARK  152  A    between atoms: _352  and  _355
REMARK  153  A    between atoms: _355  and  _356
REMARK  154  A    between atoms: _359  and  _361
REMARK  155  A    between atoms: _361  and  _362
REMARK  156  A    between atoms: _361  and  _364
REMARK  157  A    between atoms: _367  and  _369
REMARK  158  A    between atoms: _369  and  _370
REMARK  159  A    between atoms: _369  and  _372
REMARK  160  A    between atoms: _372  and  _373
REMARK  161  A    between atoms: _375  and  _377
REMARK  162  A    between atoms: _377  and  _378
REMARK  163  A    between atoms: _377  and  _380
REMARK  164  A    between atoms: _380  and  _381
REMARK  165  A    between atoms: _391  and  _393
REMARK  166  A    between atoms: _393  and  _394
REMARK  167  A    between atoms: _396  and  _398
REMARK  168  A    between atoms: _398  and  _399
REMARK  169  A    between atoms: _398  and  _401
REMARK  170  A    between atoms: _401  and  _402
REMARK  171  A    between atoms: _402  and  _403
REMARK  172  A    between atoms: _408  and  _410
REMARK  173  A    between atoms: _410  and  _411
REMARK  174  A    between atoms: _413  and  _415
REMARK  175  A    between atoms: _415  and  _416
REMARK  176  A    between atoms: _415  and  _418
REMARK  177  A    between atoms: _418  and  _419
REMARK  178  A    between atoms: _420  and  _422
REMARK  179  A    between atoms: _422  and  _423
REMARK  180  A    between atoms: _426  and  _428
REMARK  181  A    between atoms: _428  and  _429
REMARK  182  A    between atoms: _428  and  _431
REMARK  183  A    between atoms: _431  and  _432
REMARK  184  A    between atoms: _435  and  _437
REMARK  185  A    between atoms: _437  and  _438
REMARK  186  A    between atoms: _437  and  _440
REMARK  187  A    between atoms: _440  and  _441
REMARK  188  A    between atoms: _446  and  _448
REMARK  189  A    between atoms: _448  and  _449
REMARK  190  A    between atoms: _448  and  _451
REMARK  191  A    between atoms: _451  and  _452
REMARK  192  A    between atoms: _458  and  _460
REMARK  193  A    between atoms: _460  and  _461
REMARK  194  A    between atoms: _463  and  _465
REMARK  195  A    between atoms: _465  and  _466
REMARK  196  A    between atoms: _465  and  _468
REMARK  197  A    between atoms: _471  and  _473
REMARK  198  A    between atoms: _473  and  _474
REMARK  199  A    between atoms: _473  and  _476
REMARK  200  A    between atoms: _476  and  _477
REMARK  201  A    between atoms: _482  and  _483
REMARK                            x       y       z     vdW  Elec       q    Type
REMARK                         _______ _______ _______ _____ _____    ______ ____
ROOT
ATOM      1  O   HOH     1      15.975  44.858  19.358  0.00  0.00    +0.000 OA
ENDROOT
TORSDOF 0
REMARK  Name = ../refined-set-2016/4x8v/4x8v_pocket.pdb
REMARK  201 active torsions:
REMARK  status: ('A' for Active; 'I' for Inactive)
REMARK    1  A    between atoms: _1  and  _3
REMARK    2  A    between atoms: _3  and  _4
REMARK    3  A    between atoms: _3  and  _6
REMARK    4  A    between atoms: _9  and  _11
REMARK    5  A    between atoms: _11  and  _12
REMARK    6  A    between atoms: _11  and  _14
REMARK    7  A    between atoms: _17  and  _19
REMARK    8  A    between atoms: _19  and  _20
REMARK    9  A    between atoms: _19  and  _22
REMARK   10  A    between atoms: _22  and  _23
REMARK   11  A    between atoms: _23  and  _24
REMARK   12  A    between atoms: _29  and  _31
REMARK   13  A    between atoms: _31  and  _32
REMARK   14  A    between atoms: _31  and  _34
REMARK   15  A    between atoms: _34  and  _35
REMARK   16  A    between atoms: _38  and  _40
REMARK   17  A    between atoms: _40  and  _41
REMARK   18  A    between atoms: _40  and  _43
REMARK   19  A    between atoms: _43  and  _44
REMARK   20  A    between atoms: _44  and  _79
REMARK   21  A    between atoms: _45  and  _47
REMARK   22  A    between atoms: _47  and  _48
REMARK   23  A    between atoms: _50  and  _52
REMARK   24  A    between atoms: _52  and  _53
REMARK   25  A    between atoms: _56  and  _58
REMARK   26  A    between atoms: _58  and  _59
REMARK   27  A    between atoms: _62  and  _64
REMARK   28  A    between atoms: _64  and  _65
REMARK   29  A    between atoms: _64  and  _67
REMARK   30  A    between atoms: _67  and  _68
REMARK   31  A    between atoms: _73  and  _75
REMARK   32  A    between atoms: _75  and  _76
REMARK   33  A    between atoms: _75  and  _78
REMARK   34  A    between atoms: _78  and  _79
REMARK   35  A    between atoms: _80  and  _82
REMARK   36  A    between atoms: _82  and  _83
REMARK   37  A    between atoms: _82  and  _85
REMARK   38  A    between atoms: _85  and  _86
REMARK   39  A    between atoms: _92  and  _94
REMARK   40  A    between atoms: _94  and  _95
REMARK   41  A    between atoms: _94  and  _97
REMARK   42  A    between atoms: _97  and  _98
REMARK   43  A    between atoms: _101  and  _103
REMARK   44  A    between atoms: _103  and  _104
REMARK   45  A    between atoms: _103  and  _106
REMARK   46  A    between atoms: _106  and  _107
REMARK   47  A    between atoms: _107  and  _108
REMARK   48  A    between atoms: _108  and  _109
REMARK   49  A    between atoms: _109  and  _110
REMARK   50  A    between atoms: _114  and  _116
REMARK   51  A    between atoms: _116  and  _117
REMARK   52  A    between atoms: _116  and  _119
REMARK   53  A    between atoms: _119  and  _120
REMARK   54  A    between atoms: _123  and  _125
REMARK   55  A    between atoms: _125  and  _126
REMARK   56  A    between atoms: _125  and  _128
REMARK   57  A    between atoms: _128  and  _129
REMARK   58  A    between atoms: _134  and  _135
REMARK   59  A    between atoms: _137  and  _139
REMARK   60  A    between atoms: _139  and  _140
REMARK   61  A    between atoms: _139  and  _142
REMARK   62  A    between atoms: _146  and  _147
REMARK   63  A    between atoms: _152  and  _154
REMARK   64  A    between atoms: _154  and  _155
REMARK   65  A    between atoms: _157  and  _159
REMARK   66  A    between atoms: _159  and  _160
REMARK   67  A    between atoms: _159  and  _162
REMARK   68  A    between atoms: _162  and  _163
REMARK   69  A    between atoms: _166  and  _168
REMARK   70  A    between atoms: _168  and  _169
REMARK   71  A    between atoms: _168  and  _171
REMARK   72  A    between atoms: _171  and  _172
REMARK   73  A    between atoms: _175  and  _177
REMARK   74  A    between atoms: _177  and  _178
REMARK   75  A    between atoms: _177  and  _180
REMARK   76  A    between atoms: _180  and  _181
REMARK   77  A    between atoms: _186  and  _188
REMARK   78  A    between atoms: _188  and  _189
REMARK   79  A    between atoms: _188  and  _191
REMARK   80  A    between atoms: _191  and  _192
REMARK   81  A    between atoms: _195  and  _197
REMARK   82  A    between atoms: _197  and  _198
REMARK   83  A    between atoms: _197  and  _200
REMARK   84  A    between atoms: _203  and  _205
REMARK   85  A    between atoms: _205  and  _206
REMARK   86  A    between atoms: _205  and  _208
REMARK   87  A    between atoms: _208  and  _209
REMARK   88  A    between atoms: _209  and  _210
REMARK   89  A    between atoms: _215  and  _217
REMARK   90  A    between atoms: _217  and  _218
REMARK   91  A    between atoms: _217  and  _220
REMARK   92  A    between atoms: _220  and  _221
REMARK   93  A    between atoms: _224  and  _226
REMARK   94  A    between atoms: _226  and  _227
REMARK   95  A    between atoms: _226  and  _229
REMARK   96  A    between atoms: _229  and  _230
REMARK   97  A    between atoms: _233  and  _235
REMARK   98  A    between atoms: _235  and  _236
REMARK   99  A    between atoms: _235  and  _238
REMARK  100  A    between atoms: _238  and  _239
REMARK  101  A    between atoms: _242  and  _243
REMARK  102  A    between atoms: _248  and  _250
REMARK  103  A    between atoms: _250  and  _251
REMARK  104  A    between atoms: _254  and  _256
REMARK  105  A    between atoms: _256  and  _257
REMARK  106  A    between atoms: _256  and  _259
REMARK  107  A    between atoms: _259  and  _260
REMARK  108  A    between atoms: _265  and  _266
REMARK  109  A    between atoms: _268  and  _270
REMARK  110  A    between atoms: _270  and  _271
REMARK  111  A    between atoms: _270  and  _273
REMARK  112  A    between atoms: _273  and  _274
REMARK  113  A    between atoms: _274  and  _275
REMARK  114  A    between atoms: _275  and  _276
REMARK  115  A    between atoms: _276  and  _277
REMARK  116  A    between atoms: _281  and  _283
REMARK  117  A    between atoms: _283  and  _284
REMARK  118  A    between atoms: _283  and  _286
REMARK  119  A    between atoms: _286  and  _287
REMARK  120  A    between atoms: _290  and  _292
REMARK  121  A    between atoms: _292  and  _293
REMARK  122  A    between atoms: _292  and  _295
REMARK  123  A    between atoms: _295  and  _296
REMARK  124  A    between atoms: _298  and  _300
REMARK  125  A    between atoms: _300  and  _301
REMARK  126  A    between atoms: _300  and  _303
REMARK  127  A    between atoms: _303  and  _304
REMARK  128  A    between atoms: _304  and  _419
REMARK  129  A    between atoms: _305  and  _307
REMARK  130  A    between atoms: _307  and  _308
REMARK  131  A    between atoms: _307  and  _310
REMARK  132  A    between atoms: _310  and  _311
REMARK  133  A    between atoms: _311  and  _312
REMARK  134  A    between atoms: _312  and  _313
REMARK  135  A    between atoms: _313  and  _314
REMARK  136  A    between atoms: _318  and  _320
REMARK  137  A    between atoms: _320  and  _321
REMARK  138  A    between atoms: _323  and  _325
REMARK  139  A    between atoms: _325  and  _326
REMARK  140  A    between atoms: _325  and  _328
REMARK  141  A    between atoms: _328  and  _329
REMARK  142  A    between atoms: _332  and  _334
REMARK  143  A    between atoms: _334  and  _335
REMARK  144  A    between atoms: _334  and  _337
REMARK  145  A    between atoms: _337  and  _338
REMARK  146  A    between atoms: _340  and  _342
REMARK  147  A    between atoms: _342  and  _343
REMARK  148  A    between atoms: _345  and  _347
REMARK  149  A    between atoms: _347  and  _348
REMARK  150  A    between atoms: _350  and  _352
REMARK  151  A    between atoms: _352  and  _353
REMARK  152  A    between atoms: _352  and  _355
REMARK  153  A    between atoms: _355  and  _356
REMARK  154  A    between atoms: _359  and  _361
REMARK  155  A    between atoms: _361  and  _362
REMARK  156  A    between atoms: _361  and  _364
REMARK  157  A    between atoms: _367  and  _369
REMARK  158  A    between atoms: _369  and  _370
REMARK  159  A    between atoms: _369  and  _372
REMARK  160  A    between atoms: _372  and  _373
REMARK  161  A    between atoms: _375  and  _377
REMARK  162  A    between atoms: _377  and  _378
REMARK  163  A    between atoms: _377  and  _380
REMARK  164  A    between atoms: _380  and  _381
REMARK  165  A    between atoms: _391  and  _393
REMARK  166  A    between atoms: _393  and  _394
REMARK  167  A    between atoms: _396  and  _398
REMARK  168  A    between atoms: _398  and  _399
REMARK  169  A    between atoms: _398  and  _401
REMARK  170  A    between atoms: _401  and  _402
REMARK  171  A    between atoms: _402  and  _403
REMARK  172  A    between atoms: _408  and  _410
REMARK  173  A    between atoms: _410  and  _411
REMARK  174  A    between atoms: _413  and  _415
REMARK  175  A    between atoms: _415  and  _416
REMARK  176  A    between atoms: _415  and  _418
REMARK  177  A    between atoms: _418  and  _419
REMARK  178  A    between atoms: _420  and  _422
REMARK  179  A    between atoms: _422  and  _423
REMARK  180  A    between atoms: _426  and  _428
REMARK  181  A    between atoms: _428  and  _429
REMARK  182  A    between atoms: _428  and  _431
REMARK  183  A    between atoms: _431  and  _432
REMARK  184  A    between atoms: _435  and  _437
REMARK  185  A    between atoms: _437  and  _438
REMARK  186  A    between atoms: _437  and  _440
REMARK  187  A    between atoms: _440  and  _441
REMARK  188  A    between atoms: _446  and  _448
REMARK  189  A    between atoms: _448  and  _449
REMARK  190  A    between atoms: _448  and  _451
REMARK  191  A    between atoms: _451  and  _452
REMARK  192  A    between atoms: _458  and  _460
REMARK  193  A    between atoms: _460  and  _461
REMARK  194  A    between atoms: _463  and  _465
REMARK  195  A    between atoms: _465  and  _466
REMARK  196  A    between atoms: _465  and  _468
REMARK  197  A    between atoms: _471  and  _473
REMARK  198  A    between atoms: _473  and  _474
REMARK  199  A    between atoms: _473  and  _476
REMARK  200  A    between atoms: _476  and  _477
REMARK  201  A    between atoms: _482  and  _483
REMARK                            x       y       z     vdW  Elec       q    Type
REMARK                         _______ _______ _______ _____ _____    ______ ____
ROOT
ATOM      1  O   HOH     1       1.441  40.107  26.719  0.00  0.00    +0.000 OA
ENDROOT
TORSDOF 0
REMARK  Name = ../refined-set-2016/4x8v/4x8v_pocket.pdb
REMARK  201 active torsions:
REMARK  status: ('A' for Active; 'I' for Inactive)
REMARK    1  A    between atoms: _1  and  _3
REMARK    2  A    between atoms: _3  and  _4
REMARK    3  A    between atoms: _3  and  _6
REMARK    4  A    between atoms: _9  and  _11
REMARK    5  A    between atoms: _11  and  _12
REMARK    6  A    between atoms: _11  and  _14
REMARK    7  A    between atoms: _17  and  _19
REMARK    8  A    between atoms: _19  and  _20
REMARK    9  A    between atoms: _19  and  _22
REMARK   10  A    between atoms: _22  and  _23
REMARK   11  A    between atoms: _23  and  _24
REMARK   12  A    between atoms: _29  and  _31
REMARK   13  A    between atoms: _31  and  _32
REMARK   14  A    between atoms: _31  and  _34
REMARK   15  A    between atoms: _34  and  _35
REMARK   16  A    between atoms: _38  and  _40
REMARK   17  A    between atoms: _40  and  _41
REMARK   18  A    between atoms: _40  and  _43
REMARK   19  A    between atoms: _43  and  _44
REMARK   20  A    between atoms: _44  and  _79
REMARK   21  A    between atoms: _45  and  _47
REMARK   22  A    between atoms: _47  and  _48
REMARK   23  A    between atoms: _50  and  _52
REMARK   24  A    between atoms: _52  and  _53
REMARK   25  A    between atoms: _56  and  _58
REMARK   26  A    between atoms: _58  and  _59
REMARK   27  A    between atoms: _62  and  _64
REMARK   28  A    between atoms: _64  and  _65
REMARK   29  A    between atoms: _64  and  _67
REMARK   30  A    between atoms: _67  and  _68
REMARK   31  A    between atoms: _73  and  _75
REMARK   32  A    between atoms: _75  and  _76
REMARK   33  A    between atoms: _75  and  _78
REMARK   34  A    between atoms: _78  and  _79
REMARK   35  A    between atoms: _80  and  _82
REMARK   36  A    between atoms: _82  and  _83
REMARK   37  A    between atoms: _82  and  _85
REMARK   38  A    between atoms: _85  and  _86
REMARK   39  A    between atoms: _92  and  _94
REMARK   40  A    between atoms: _94  and  _95
REMARK   41  A    between atoms: _94  and  _97
REMARK   42  A    between atoms: _97  and  _98
REMARK   43  A    between atoms: _101  and  _103
REMARK   44  A    between atoms: _103  and  _104
REMARK   45  A    between atoms: _103  and  _106
REMARK   46  A    between atoms: _106  and  _107
REMARK   47  A    between atoms: _107  and  _108
REMARK   48  A    between atoms: _108  and  _109
REMARK   49  A    between atoms: _109  and  _110
REMARK   50  A    between atoms: _114  and  _116
REMARK   51  A    between atoms: _116  and  _117
REMARK   52  A    between atoms: _116  and  _119
REMARK   53  A    between atoms: _119  and  _120
REMARK   54  A    between atoms: _123  and  _125
REMARK   55  A    between atoms: _125  and  _126
REMARK   56  A    between atoms: _125  and  _128
REMARK   57  A    between atoms: _128  and  _129
REMARK   58  A    between atoms: _134  and  _135
REMARK   59  A    between atoms: _137  and  _139
REMARK   60  A    between atoms: _139  and  _140
REMARK   61  A    between atoms: _139  and  _142
REMARK   62  A    between atoms: _146  and  _147
REMARK   63  A    between atoms: _152  and  _154
REMARK   64  A    between atoms: _154  and  _155
REMARK   65  A    between atoms: _157  and  _159
REMARK   66  A    between atoms: _159  and  _160
REMARK   67  A    between atoms: _159  and  _162
REMARK   68  A    between atoms: _162  and  _163
REMARK   69  A    between atoms: _166  and  _168
REMARK   70  A    between atoms: _168  and  _169
REMARK   71  A    between atoms: _168  and  _171
REMARK   72  A    between atoms: _171  and  _172
REMARK   73  A    between atoms: _175  and  _177
REMARK   74  A    between atoms: _177  and  _178
REMARK   75  A    between atoms: _177  and  _180
REMARK   76  A    between atoms: _180  and  _181
REMARK   77  A    between atoms: _186  and  _188
REMARK   78  A    between atoms: _188  and  _189
REMARK   79  A    between atoms: _188  and  _191
REMARK   80  A    between atoms: _191  and  _192
REMARK   81  A    between atoms: _195  and  _197
REMARK   82  A    between atoms: _197  and  _198
REMARK   83  A    between atoms: _197  and  _200
REMARK   84  A    between atoms: _203  and  _205
REMARK   85  A    between atoms: _205  and  _206
REMARK   86  A    between atoms: _205  and  _208
REMARK   87  A    between atoms: _208  and  _209
REMARK   88  A    between atoms: _209  and  _210
REMARK   89  A    between atoms: _215  and  _217
REMARK   90  A    between atoms: _217  and  _218
REMARK   91  A    between atoms: _217  and  _220
REMARK   92  A    between atoms: _220  and  _221
REMARK   93  A    between atoms: _224  and  _226
REMARK   94  A    between atoms: _226  and  _227
REMARK   95  A    between atoms: _226  and  _229
REMARK   96  A    between atoms: _229  and  _230
REMARK   97  A    between atoms: _233  and  _235
REMARK   98  A    between atoms: _235  and  _236
REMARK   99  A    between atoms: _235  and  _238
REMARK  100  A    between atoms: _238  and  _239
REMARK  101  A    between atoms: _242  and  _243
REMARK  102  A    between atoms: _248  and  _250
REMARK  103  A    between atoms: _250  and  _251
REMARK  104  A    between atoms: _254  and  _256
REMARK  105  A    between atoms: _256  and  _257
REMARK  106  A    between atoms: _256  and  _259
REMARK  107  A    between atoms: _259  and  _260
REMARK  108  A    between atoms: _265  and  _266
REMARK  109  A    between atoms: _268  and  _270
REMARK  110  A    between atoms: _270  and  _271
REMARK  111  A    between atoms: _270  and  _273
REMARK  112  A    between atoms: _273  and  _274
REMARK  113  A    between atoms: _274  and  _275
REMARK  114  A    between atoms: _275  and  _276
REMARK  115  A    between atoms: _276  and  _277
REMARK  116  A    between atoms: _281  and  _283
REMARK  117  A    between atoms: _283  and  _284
REMARK  118  A    between atoms: _283  and  _286
REMARK  119  A    between atoms: _286  and  _287
REMARK  120  A    between atoms: _290  and  _292
REMARK  121  A    between atoms: _292  and  _293
REMARK  122  A    between atoms: _292  and  _295
REMARK  123  A    between atoms: _295  and  _296
REMARK  124  A    between atoms: _298  and  _300
REMARK  125  A    between atoms: _300  and  _301
REMARK  126  A    between atoms: _300  and  _303
REMARK  127  A    between atoms: _303  and  _304
REMARK  128  A    between atoms: _304  and  _419
REMARK  129  A    between atoms: _305  and  _307
REMARK  130  A    between atoms: _307  and  _308
REMARK  131  A    between atoms: _307  and  _310
REMARK  132  A    between atoms: _310  and  _311
REMARK  133  A    between atoms: _311  and  _312
REMARK  134  A    between atoms: _312  and  _313
REMARK  135  A    between atoms: _313  and  _314
REMARK  136  A    between atoms: _318  and  _320
REMARK  137  A    between atoms: _320  and  _321
REMARK  138  A    between atoms: _323  and  _325
REMARK  139  A    between atoms: _325  and  _326
REMARK  140  A    between atoms: _325  and  _328
REMARK  141  A    between atoms: _328  and  _329
REMARK  142  A    between atoms: _332  and  _334
REMARK  143  A    between atoms: _334  and  _335
REMARK  144  A    between atoms: _334  and  _337
REMARK  145  A    between atoms: _337  and  _338
REMARK  146  A    between atoms: _340  and  _342
REMARK  147  A    between atoms: _342  and  _343
REMARK  148  A    between atoms: _345  and  _347
REMARK  149  A    between atoms: _347  and  _348
REMARK  150  A    between atoms: _350  and  _352
REMARK  151  A    between atoms: _352  and  _353
REMARK  152  A    between atoms: _352  and  _355
REMARK  153  A    between atoms: _355  and  _356
REMARK  154  A    between atoms: _359  and  _361
REMARK  155  A    between atoms: _361  and  _362
REMARK  156  A    between atoms: _361  and  _364
REMARK  157  A    between atoms: _367  and  _369
REMARK  158  A    between atoms: _369  and  _370
REMARK  159  A    between atoms: _369  and  _372
REMARK  160  A    between atoms: _372  and  _373
REMARK  161  A    between atoms: _375  and  _377
REMARK  162  A    between atoms: _377  and  _378
REMARK  163  A    between atoms: _377  and  _380
REMARK  164  A    between atoms: _380  and  _381
REMARK  165  A    between atoms: _391  and  _393
REMARK  166  A    between atoms: _393  and  _394
REMARK  167  A    between atoms: _396  and  _398
REMARK  168  A    between atoms: _398  and  _399
REMARK  169  A    between atoms: _398  and  _401
REMARK  170  A    between atoms: _401  and  _402
REMARK  171  A    between atoms: _402  and  _403
REMARK  172  A    between atoms: _408  and  _410
REMARK  173  A    between atoms: _410  and  _411
REMARK  174  A    between atoms: _413  and  _415
REMARK  175  A    between atoms: _415  and  _416
REMARK  176  A    between atoms: _415  and  _418
REMARK  177  A    between atoms: _418  and  _419
REMARK  178  A    between atoms: _420  and  _422
REMARK  179  A    between atoms: _422  and  _423
REMARK  180  A    between atoms: _426  and  _428
REMARK  181  A    between atoms: _428  and  _429
REMARK  182  A    between atoms: _428  and  _431
REMARK  183  A    between atoms: _431  and  _432
REMARK  184  A    between atoms: _435  and  _437
REMARK  185  A    between atoms: _437  and  _438
REMARK  186  A    between atoms: _437  and  _440
REMARK  187  A    between atoms: _440  and  _441
REMARK  188  A    between atoms: _446  and  _448
REMARK  189  A    between atoms: _448  and  _449
REMARK  190  A    between atoms: _448  and  _451
REMARK  191  A    between atoms: _451  and  _452
REMARK  192  A    between atoms: _458  and  _460
REMARK  193  A    between atoms: _460  and  _461
REMARK  194  A    between atoms: _463  and  _465
REMARK  195  A    between atoms: _465  and  _466
REMARK  196  A    between atoms: _465  and  _468
REMARK  197  A    between atoms: _471  and  _473
REMARK  198  A    between atoms: _473  and  _474
REMARK  199  A    between atoms: _473  and  _476
REMARK  200  A    between atoms: _476  and  _477
REMARK  201  A    between atoms: _482  and  _483
REMARK                            x       y       z     vdW  Elec       q    Type
REMARK                         _______ _______ _______ _____ _____    ______ ____
ROOT
ATOM      1  O   HOH     1       1.324  36.236  20.302  0.00  0.00    +0.000 OA
ENDROOT
TORSDOF 0
