REMARK  Name = ../refined-set-2016/1x8r/1x8r_pocket.pdb
REMARK  256 active torsions:
REMARK  status: ('A' for Active; 'I' for Inactive)
REMARK    1  A    between atoms: _1  and  _3
REMARK    2  A    between atoms: _3  and  _4
REMARK    3  A    between atoms: _3  and  _6
REMARK    4  A    between atoms: _6  and  _7
REMARK    5  A    between atoms: _9  and  _11
REMARK    6  A    between atoms: _11  and  _12
REMARK    7  A    between atoms: _11  and  _14
REMARK    8  A    between atoms: _14  and  _15
REMARK    9  A    between atoms: _15  and  _16
REMARK   10  A    between atoms: _16  and  _17
REMARK   11  A    between atoms: _17  and  _18
REMARK   12  A    between atoms: _22  and  _24
REMARK   13  A    between atoms: _24  and  _25
REMARK   14  A    between atoms: _24  and  _27
REMARK   15  A    between atoms: _27  and  _28
REMARK   16  A    between atoms: _30  and  _32
REMARK   17  A    between atoms: _32  and  _33
REMARK   18  A    between atoms: _32  and  _35
REMARK   19  A    between atoms: _38  and  _40
REMARK   20  A    between atoms: _40  and  _41
REMARK   21  A    between atoms: _40  and  _43
REMARK   22  A    between atoms: _43  and  _44
REMARK   23  A    between atoms: _46  and  _48
REMARK   24  A    between atoms: _48  and  _49
REMARK   25  A    between atoms: _48  and  _51
REMARK   26  A    between atoms: _51  and  _52
REMARK   27  A    between atoms: _57  and  _59
REMARK   28  A    between atoms: _59  and  _60
REMARK   29  A    between atoms: _59  and  _62
REMARK   30  A    between atoms: _62  and  _63
REMARK   31  A    between atoms: _63  and  _64
REMARK   32  A    between atoms: _64  and  _65
REMARK   33  A    between atoms: _74  and  _76
REMARK   34  A    between atoms: _76  and  _77
REMARK   35  A    between atoms: _76  and  _79
REMARK   36  A    between atoms: _79  and  _80
REMARK   37  A    between atoms: _83  and  _85
REMARK   38  A    between atoms: _85  and  _86
REMARK   39  A    between atoms: _85  and  _88
REMARK   40  A    between atoms: _88  and  _89
REMARK   41  A    between atoms: _94  and  _96
REMARK   42  A    between atoms: _96  and  _97
REMARK   43  A    between atoms: _100  and  _102
REMARK   44  A    between atoms: _102  and  _103
REMARK   45  A    between atoms: _105  and  _107
REMARK   46  A    between atoms: _107  and  _108
REMARK   47  A    between atoms: _107  and  _110
REMARK   48  A    between atoms: _110  and  _111
REMARK   49  A    between atoms: _114  and  _116
REMARK   50  A    between atoms: _116  and  _117
REMARK   51  A    between atoms: _120  and  _122
REMARK   52  A    between atoms: _122  and  _123
REMARK   53  A    between atoms: _122  and  _125
REMARK   54  A    between atoms: _125  and  _126
REMARK   55  A    between atoms: _126  and  _127
REMARK   56  A    between atoms: _129  and  _131
REMARK   57  A    between atoms: _131  and  _132
REMARK   58  A    between atoms: _131  and  _134
REMARK   59  A    between atoms: _134  and  _135
REMARK   60  A    between atoms: _135  and  _136
REMARK   61  A    between atoms: _136  and  _137
REMARK   62  A    between atoms: _147  and  _148
REMARK   63  A    between atoms: _153  and  _155
REMARK   64  A    between atoms: _155  and  _156
REMARK   65  A    between atoms: _155  and  _158
REMARK   66  A    between atoms: _158  and  _159
REMARK   67  A    between atoms: _159  and  _160
REMARK   68  A    between atoms: _162  and  _164
REMARK   69  A    between atoms: _164  and  _165
REMARK   70  A    between atoms: _164  and  _167
REMARK   71  A    between atoms: _167  and  _168
REMARK   72  A    between atoms: _168  and  _169
REMARK   73  A    between atoms: _169  and  _170
REMARK   74  A    between atoms: _180  and  _181
REMARK   75  A    between atoms: _186  and  _188
REMARK   76  A    between atoms: _188  and  _189
REMARK   77  A    between atoms: _191  and  _193
REMARK   78  A    between atoms: _193  and  _194
REMARK   79  A    between atoms: _193  and  _196
REMARK   80  A    between atoms: _196  and  _197
REMARK   81  A    between atoms: _199  and  _201
REMARK   82  A    between atoms: _201  and  _202
REMARK   83  A    between atoms: _201  and  _204
REMARK   84  A    between atoms: _207  and  _209
REMARK   85  A    between atoms: _209  and  _210
REMARK   86  A    between atoms: _209  and  _212
REMARK   87  A    between atoms: _212  and  _213
REMARK   88  A    between atoms: _215  and  _217
REMARK   89  A    between atoms: _217  and  _218
REMARK   90  A    between atoms: _217  and  _220
REMARK   91  A    between atoms: _220  and  _221
REMARK   92  A    between atoms: _223  and  _225
REMARK   93  A    between atoms: _225  and  _226
REMARK   94  A    between atoms: _225  and  _228
REMARK   95  A    between atoms: _228  and  _229
REMARK   96  A    between atoms: _229  and  _230
REMARK   97  A    between atoms: _235  and  _237
REMARK   98  A    between atoms: _237  and  _238
REMARK   99  A    between atoms: _237  and  _240
REMARK  100  A    between atoms: _240  and  _241
REMARK  101  A    between atoms: _247  and  _249
REMARK  102  A    between atoms: _249  and  _250
REMARK  103  A    between atoms: _249  and  _252
REMARK  104  A    between atoms: _252  and  _253
REMARK  105  A    between atoms: _256  and  _258
REMARK  106  A    between atoms: _258  and  _259
REMARK  107  A    between atoms: _258  and  _261
REMARK  108  A    between atoms: _261  and  _262
REMARK  109  A    between atoms: _265  and  _267
REMARK  110  A    between atoms: _267  and  _268
REMARK  111  A    between atoms: _271  and  _273
REMARK  112  A    between atoms: _273  and  _274
REMARK  113  A    between atoms: _273  and  _276
REMARK  114  A    between atoms: _276  and  _277
REMARK  115  A    between atoms: _277  and  _278
REMARK  116  A    between atoms: _280  and  _282
REMARK  117  A    between atoms: _282  and  _283
REMARK  118  A    between atoms: _282  and  _285
REMARK  119  A    between atoms: _285  and  _286
REMARK  120  A    between atoms: _289  and  _291
REMARK  121  A    between atoms: _291  and  _292
REMARK  122  A    between atoms: _291  and  _294
REMARK  123  A    between atoms: _297  and  _299
REMARK  124  A    between atoms: _299  and  _300
REMARK  125  A    between atoms: _299  and  _302
REMARK  126  A    between atoms: _302  and  _303
REMARK  127  A    between atoms: _305  and  _307
REMARK  128  A    between atoms: _307  and  _308
REMARK  129  A    between atoms: _307  and  _310
REMARK  130  A    between atoms: _310  and  _311
REMARK  131  A    between atoms: _311  and  _312
REMARK  132  A    between atoms: _312  and  _313
REMARK  133  A    between atoms: _313  and  _314
REMARK  134  A    between atoms: _319  and  _320
REMARK  135  A    between atoms: _325  and  _327
REMARK  136  A    between atoms: _327  and  _328
REMARK  137  A    between atoms: _327  and  _330
REMARK  138  A    between atoms: _330  and  _331
REMARK  139  A    between atoms: _336  and  _337
REMARK  140  A    between atoms: _339  and  _341
REMARK  141  A    between atoms: _341  and  _342
REMARK  142  A    between atoms: _341  and  _344
REMARK  143  A    between atoms: _344  and  _345
REMARK  144  A    between atoms: _348  and  _350
REMARK  145  A    between atoms: _350  and  _351
REMARK  146  A    between atoms: _350  and  _353
REMARK  147  A    between atoms: _353  and  _354
REMARK  148  A    between atoms: _357  and  _359
REMARK  149  A    between atoms: _359  and  _360
REMARK  150  A    between atoms: _359  and  _362
REMARK  151  A    between atoms: _362  and  _363
REMARK  152  A    between atoms: _366  and  _368
REMARK  153  A    between atoms: _368  and  _369
REMARK  154  A    between atoms: _368  and  _371
REMARK  155  A    between atoms: _371  and  _372
REMARK  156  A    between atoms: _375  and  _377
REMARK  157  A    between atoms: _377  and  _378
REMARK  158  A    between atoms: _377  and  _380
REMARK  159  A    between atoms: _380  and  _381
REMARK  160  A    between atoms: _383  and  _385
REMARK  161  A    between atoms: _385  and  _386
REMARK  162  A    between atoms: _385  and  _388
REMARK  163  A    between atoms: _388  and  _389
REMARK  164  A    between atoms: _394  and  _395
REMARK  165  A    between atoms: _397  and  _399
REMARK  166  A    between atoms: _399  and  _400
REMARK  167  A    between atoms: _399  and  _402
REMARK  168  A    between atoms: _402  and  _403
REMARK  169  A    between atoms: _406  and  _408
REMARK  170  A    between atoms: _408  and  _409
REMARK  171  A    between atoms: _408  and  _411
REMARK  172  A    between atoms: _411  and  _412
REMARK  173  A    between atoms: _417  and  _419
REMARK  174  A    between atoms: _419  and  _420
REMARK  175  A    between atoms: _419  and  _422
REMARK  176  A    between atoms: _422  and  _423
REMARK  177  A    between atoms: _427  and  _428
REMARK  178  A    between atoms: _433  and  _435
REMARK  179  A    between atoms: _435  and  _436
REMARK  180  A    between atoms: _435  and  _438
REMARK  181  A    between atoms: _438  and  _439
REMARK  182  A    between atoms: _442  and  _444
REMARK  183  A    between atoms: _444  and  _445
REMARK  184  A    between atoms: _448  and  _450
REMARK  185  A    between atoms: _450  and  _451
REMARK  186  A    between atoms: _450  and  _453
REMARK  187  A    between atoms: _453  and  _454
REMARK  188  A    between atoms: _454  and  _455
REMARK  189  A    between atoms: _457  and  _459
REMARK  190  A    between atoms: _459  and  _460
REMARK  191  A    between atoms: _459  and  _462
REMARK  192  A    between atoms: _462  and  _463
REMARK  193  A    between atoms: _468  and  _470
REMARK  194  A    between atoms: _470  and  _471
REMARK  195  A    between atoms: _470  and  _473
REMARK  196  A    between atoms: _473  and  _474
REMARK  197  A    between atoms: _484  and  _486
REMARK  198  A    between atoms: _486  and  _487
REMARK  199  A    between atoms: _486  and  _489
REMARK  200  A    between atoms: _492  and  _494
REMARK  201  A    between atoms: _494  and  _495
REMARK  202  A    between atoms: _494  and  _497
REMARK  203  A    between atoms: _497  and  _498
REMARK  204  A    between atoms: _498  and  _499
REMARK  205  A    between atoms: _499  and  _500
REMARK  206  A    between atoms: _500  and  _501
REMARK  207  A    between atoms: _505  and  _507
REMARK  208  A    between atoms: _507  and  _508
REMARK  209  A    between atoms: _507  and  _510
REMARK  210  A    between atoms: _510  and  _511
REMARK  211  A    between atoms: _511  and  _512
REMARK  212  A    between atoms: _515  and  _517
REMARK  213  A    between atoms: _517  and  _518
REMARK  214  A    between atoms: _517  and  _520
REMARK  215  A    between atoms: _520  and  _521
REMARK  216  A    between atoms: _524  and  _526
REMARK  217  A    between atoms: _526  and  _527
REMARK  218  A    between atoms: _526  and  _529
REMARK  219  A    between atoms: _529  and  _530
REMARK  220  A    between atoms: _530  and  _531
REMARK  221  A    between atoms: _531  and  _532
REMARK  222  A    between atoms: _541  and  _543
REMARK  223  A    between atoms: _543  and  _544
REMARK  224  A    between atoms: _543  and  _546
REMARK  225  A    between atoms: _546  and  _547
REMARK  226  A    between atoms: _550  and  _552
REMARK  227  A    between atoms: _552  and  _553
REMARK  228  A    between atoms: _552  and  _555
REMARK  229  A    between atoms: _555  and  _556
REMARK  230  A    between atoms: _561  and  _563
REMARK  231  A    between atoms: _563  and  _564
REMARK  232  A    between atoms: _563  and  _566
REMARK  233  A    between atoms: _566  and  _567
REMARK  234  A    between atoms: _567  and  _568
REMARK  235  A    between atoms: _568  and  _569
REMARK  236  A    between atoms: _578  and  _580
REMARK  237  A    between atoms: _580  and  _581
REMARK  238  A    between atoms: _580  and  _583
REMARK  239  A    between atoms: _583  and  _584
REMARK  240  A    between atoms: _584  and  _585
REMARK  241  A    between atoms: _587  and  _589
REMARK  242  A    between atoms: _589  and  _590
REMARK  243  A    between atoms: _589  and  _592
REMARK  244  A    between atoms: _592  and  _593
REMARK  245  A    between atoms: _593  and  _594
REMARK  246  A    between atoms: _596  and  _598
REMARK  247  A    between atoms: _598  and  _599
REMARK  248  A    between atoms: _598  and  _601
REMARK  249  A    between atoms: _601  and  _602
REMARK  250  A    between atoms: _602  and  _603
REMARK  251  A    between atoms: _603  and  _604
REMARK  252  A    between atoms: _604  and  _605
REMARK  253  A    between atoms: _609  and  _611
REMARK  254  A    between atoms: _611  and  _612
REMARK  255  A    between atoms: _611  and  _614
REMARK  256  A    between atoms: _614  and  _615
REMARK                            x       y       z     vdW  Elec       q    Type
REMARK                         _______ _______ _______ _____ _____    ______ ____
ROOT
ATOM      1  C   VAL A   4      59.829  21.500  26.748  0.00  0.00    +0.241 C 
ATOM      2  N   SER A   5      61.075  21.196  27.127  0.00  0.00    -0.295 N 
ATOM      3  H   SER A   5      61.229  20.685  28.020  0.00  0.00    +0.150 HD
ATOM      4  O   VAL A   4      59.575  22.016  25.658  0.00  0.00    -0.273 OA
ENDROOT
BRANCH   1   5
ATOM      5  CA  VAL A   4      58.699  21.123  27.705  0.00  0.00    +0.149 C 
BRANCH   5   7
ATOM      6  C   SER A   3      58.743  18.736  27.492  0.00  0.00    +0.243 C 
ATOM      7  N   VAL A   4      58.893  19.804  28.261  0.00  0.00    -0.297 N 
ATOM      8  H   VAL A   4      59.150  19.693  29.263  0.00  0.00    +0.150 HD
ATOM      9  O   SER A   3      58.372  18.788  26.312  0.00  0.00    -0.273 OA
BRANCH   6  10
ATOM     10  CA  SER A   3      58.997  17.417  28.174  0.00  0.00    +0.178 C 
BRANCH  10  12
ATOM     11  C   LYS A   2      61.415  17.702  28.417  0.00  0.00    +0.241 C 
ATOM     12  N   SER A   3      60.225  17.455  28.969  0.00  0.00    -0.295 N 
ATOM     13  H   SER A   3      60.169  17.285  29.993  0.00  0.00    +0.150 HD
ATOM     14  O   LYS A   2      61.568  17.949  27.220  0.00  0.00    -0.273 OA
BRANCH  11  15
ATOM     15  CA  LYS A   2      62.627  17.696  29.349  0.00  0.00    +0.149 C 
BRANCH  15  17
ATOM     16  C   SER A   1      62.047  19.668  30.638  0.00  0.00    +0.241 C 
ATOM     17  N   LYS A   2      62.311  18.368  30.609  0.00  0.00    -0.297 N 
ATOM     18  H   LYS A   2      62.293  17.820  31.493  0.00  0.00    +0.150 HD
ATOM     19  O   SER A   1      62.132  20.397  29.644  0.00  0.00    -0.274 OA
BRANCH  16  20
ATOM     20  CA  SER A   1      61.647  20.247  31.998  0.00  0.00    +0.174 C 
BRANCH  20  21
ATOM     21  N   SER A   1      62.491  21.369  32.363  0.00  0.00    -0.236 NA
ATOM     22  H   SER A   1      62.054  22.307  32.471  0.00  0.00    +0.142 HD
ENDBRANCH  20  21
BRANCH  20  23
ATOM     23  CB  SER A   1      60.194  20.715  31.903  0.00  0.00    +0.163 C 
BRANCH  23  24
ATOM     24  OG  SER A   1      59.399  19.748  31.220  0.00  0.00    -0.380 OA
ATOM     25  H   SER A   1      59.429  18.890  31.713  0.00  0.00    +0.211 HD
ENDBRANCH  23  24
ENDBRANCH  20  23
ENDBRANCH  16  20
ENDBRANCH  15  17
BRANCH  15  26
ATOM     26  CB  LYS A   2      63.066  16.246  29.621  0.00  0.00    +0.029 C 
BRANCH  26  27
ATOM     27  CG  LYS A   2      63.268  15.400  28.350  0.00  0.00    +0.000 C 
BRANCH  27  28
ATOM     28  CD  LYS A   2      62.075  14.435  28.148  0.00  0.00    -0.024 C 
BRANCH  28  29
ATOM     29  CE  LYS A   2      62.144  13.272  29.151  0.00  0.00    -0.086 C 
BRANCH  29  30
ATOM     30  NZ  LYS A   2      60.899  12.432  29.207  0.00  0.00    +0.380 N 
ATOM     31  HZ1 LYS A   2      61.026  11.672  29.905  0.00  0.00    -0.089 HD
ATOM     32  HZ2 LYS A   2      60.093  13.027  29.484  0.00  0.00    -0.089 HD
ATOM     33  HZ3 LYS A   2      60.719  12.018  28.270  0.00  0.00    -0.089 HD
ENDBRANCH  29  30
ENDBRANCH  28  29
ENDBRANCH  27  28
ENDBRANCH  26  27
ENDBRANCH  15  26
ENDBRANCH  11  15
ENDBRANCH  10  12
BRANCH  10  34
ATOM     34  CB  SER A   3      57.804  17.078  29.072  0.00  0.00    +0.166 C 
BRANCH  34  35
ATOM     35  OG  SER A   3      57.885  15.730  29.512  0.00  0.00    -0.380 OA
ATOM     36  H   SER A   3      57.881  15.127  28.727  0.00  0.00    +0.211 HD
ENDBRANCH  34  35
ENDBRANCH  10  34
ENDBRANCH   6  10
ENDBRANCH   5   7
BRANCH   5  37
ATOM     37  CB  VAL A   4      58.601  22.181  28.825  0.00  0.00    +0.027 C 
ATOM     38  CG2 VAL A   4      57.317  21.957  29.641  0.00  0.00    +0.002 C 
ATOM     39  CG1 VAL A   4      58.613  23.591  28.204  0.00  0.00    +0.002 C 
ENDBRANCH   5  37
ENDBRANCH   1   5
BRANCH   2  40
ATOM     40  CA  SER A   5      62.223  21.571  26.305  0.00  0.00    +0.178 C 
BRANCH  40  41
ATOM     41  C   SER A   5      62.166  21.016  24.888  0.00  0.00    +0.243 C 
ATOM     42  N   ASN A   6      61.892  19.724  24.752  0.00  0.00    -0.297 N 
ATOM     43  H   ASN A   6      61.685  19.134  25.583  0.00  0.00    +0.150 HD
ATOM     44  O   SER A   5      62.352  21.747  23.934  0.00  0.00    -0.273 OA
BRANCH  42  45
ATOM     45  CA  ASN A   6      61.888  19.153  23.414  0.00  0.00    +0.158 C 
BRANCH  45  46
ATOM     46  C   ASN A   6      60.692  19.596  22.591  0.00  0.00    +0.241 C 
ATOM     47  N   ARG A   7      59.556  19.839  23.243  0.00  0.00    -0.298 N 
ATOM     48  H   ARG A   7      59.487  19.668  24.266  0.00  0.00    +0.150 HD
ATOM     49  O   ASN A   6      60.807  19.735  21.374  0.00  0.00    -0.273 OA
BRANCH  47  50
ATOM     50  CA  ARG A   7      58.409  20.350  22.497  0.00  0.00    +0.137 C 
BRANCH  50  51
ATOM     51  C   ARG A   7      58.716  21.769  22.007  0.00  0.00    +0.227 C 
ATOM     52  O   ARG A   7      58.441  22.092  20.852  0.00  0.00    -0.286 OA
ENDBRANCH  50  51
BRANCH  50  53
ATOM     53  CB  ARG A   7      57.170  20.401  23.381  0.00  0.00    +0.031 C 
BRANCH  53  54
ATOM     54  CG  ARG A   7      56.466  19.043  23.554  0.00  0.00    +0.045 C 
BRANCH  54  55
ATOM     55  CD  ARG A   7      55.478  19.170  24.698  0.00  0.00    +0.174 C 
BRANCH  55  56
ATOM     56  NE  ARG A   7      54.626  18.015  24.934  0.00  0.00    -0.265 N 
ATOM     57  CZ  ARG A   7      55.008  16.895  25.545  0.00  0.00    +0.342 C 
ATOM     58  NH2 ARG A   7      56.267  16.755  25.956  0.00  0.00    -0.292 N 
ATOM     59 HH21 ARG A   7      56.564  15.880  26.433  0.00  0.00    +0.255 HD
ATOM     60 HH22 ARG A   7      56.953  17.521  25.800  0.00  0.00    +0.255 HD
ATOM     61  NH1 ARG A   7      54.138  15.910  25.732  0.00  0.00    -0.292 N 
ATOM     62 HH11 ARG A   7      54.437  15.036  26.209  0.00  0.00    +0.255 HD
ATOM     63 HH12 ARG A   7      53.157  16.013  25.401  0.00  0.00    +0.255 HD
ATOM     64  HE  ARG A   7      53.643  18.068  24.600  0.00  0.00    +0.259 HD
ENDBRANCH  55  56
ENDBRANCH  54  55
ENDBRANCH  53  54
ENDBRANCH  50  53
ENDBRANCH  47  50
ENDBRANCH  45  46
BRANCH  45  65
ATOM     65  CB  ASN A   6      62.042  17.631  23.477  0.00  0.00    +0.114 C 
BRANCH  65  66
ATOM     66  CG  ASN A   6      63.511  17.214  23.437  0.00  0.00    +0.222 C 
ATOM     67  ND2 ASN A   6      63.767  15.907  23.530  0.00  0.00    -0.329 N 
ATOM     68 HD21 ASN A   6      62.985  15.230  23.635  0.00  0.00    +0.145 HD
ATOM     69 HD22 ASN A   6      64.749  15.566  23.497  0.00  0.00    +0.145 HD
ATOM     70  OD1 ASN A   6      64.396  18.063  23.311  0.00  0.00    -0.275 OA
ENDBRANCH  65  66
ENDBRANCH  45  65
ENDBRANCH  42  45
ENDBRANCH  40  41
BRANCH  40  71
ATOM     71  CB  SER A   5      63.535  21.098  26.944  0.00  0.00    +0.166 C 
BRANCH  71  72
ATOM     72  OG  SER A   5      63.877  21.841  28.093  0.00  0.00    -0.380 OA
ATOM     73  H   SER A   5      63.159  21.751  28.769  0.00  0.00    +0.211 HD
ENDBRANCH  71  72
ENDBRANCH  40  71
ENDBRANCH   2  40
TORSDOF 32
REMARK  Name = ../refined-set-2016/1x8r/1x8r_pocket.pdb
REMARK  256 active torsions:
REMARK  status: ('A' for Active; 'I' for Inactive)
REMARK    1  A    between atoms: _1  and  _3
REMARK    2  A    between atoms: _3  and  _4
REMARK    3  A    between atoms: _3  and  _6
REMARK    4  A    between atoms: _6  and  _7
REMARK    5  A    between atoms: _9  and  _11
REMARK    6  A    between atoms: _11  and  _12
REMARK    7  A    between atoms: _11  and  _14
REMARK    8  A    between atoms: _14  and  _15
REMARK    9  A    between atoms: _15  and  _16
REMARK   10  A    between atoms: _16  and  _17
REMARK   11  A    between atoms: _17  and  _18
REMARK   12  A    between atoms: _22  and  _24
REMARK   13  A    between atoms: _24  and  _25
REMARK   14  A    between atoms: _24  and  _27
REMARK   15  A    between atoms: _27  and  _28
REMARK   16  A    between atoms: _30  and  _32
REMARK   17  A    between atoms: _32  and  _33
REMARK   18  A    between atoms: _32  and  _35
REMARK   19  A    between atoms: _38  and  _40
REMARK   20  A    between atoms: _40  and  _41
REMARK   21  A    between atoms: _40  and  _43
REMARK   22  A    between atoms: _43  and  _44
REMARK   23  A    between atoms: _46  and  _48
REMARK   24  A    between atoms: _48  and  _49
REMARK   25  A    between atoms: _48  and  _51
REMARK   26  A    between atoms: _51  and  _52
REMARK   27  A    between atoms: _57  and  _59
REMARK   28  A    between atoms: _59  and  _60
REMARK   29  A    between atoms: _59  and  _62
REMARK   30  A    between atoms: _62  and  _63
REMARK   31  A    between atoms: _63  and  _64
REMARK   32  A    between atoms: _64  and  _65
REMARK   33  A    between atoms: _74  and  _76
REMARK   34  A    between atoms: _76  and  _77
REMARK   35  A    between atoms: _76  and  _79
REMARK   36  A    between atoms: _79  and  _80
REMARK   37  A    between atoms: _83  and  _85
REMARK   38  A    between atoms: _85  and  _86
REMARK   39  A    between atoms: _85  and  _88
REMARK   40  A    between atoms: _88  and  _89
REMARK   41  A    between atoms: _94  and  _96
REMARK   42  A    between atoms: _96  and  _97
REMARK   43  A    between atoms: _100  and  _102
REMARK   44  A    between atoms: _102  and  _103
REMARK   45  A    between atoms: _105  and  _107
REMARK   46  A    between atoms: _107  and  _108
REMARK   47  A    between atoms: _107  and  _110
REMARK   48  A    between atoms: _110  and  _111
REMARK   49  A    between atoms: _114  and  _116
REMARK   50  A    between atoms: _116  and  _117
REMARK   51  A    between atoms: _120  and  _122
REMARK   52  A    between atoms: _122  and  _123
REMARK   53  A    between atoms: _122  and  _125
REMARK   54  A    between atoms: _125  and  _126
REMARK   55  A    between atoms: _126  and  _127
REMARK   56  A    between atoms: _129  and  _131
REMARK   57  A    between atoms: _131  and  _132
REMARK   58  A    between atoms: _131  and  _134
REMARK   59  A    between atoms: _134  and  _135
REMARK   60  A    between atoms: _135  and  _136
REMARK   61  A    between atoms: _136  and  _137
REMARK   62  A    between atoms: _147  and  _148
REMARK   63  A    between atoms: _153  and  _155
REMARK   64  A    between atoms: _155  and  _156
REMARK   65  A    between atoms: _155  and  _158
REMARK   66  A    between atoms: _158  and  _159
REMARK   67  A    between atoms: _159  and  _160
REMARK   68  A    between atoms: _162  and  _164
REMARK   69  A    between atoms: _164  and  _165
REMARK   70  A    between atoms: _164  and  _167
REMARK   71  A    between atoms: _167  and  _168
REMARK   72  A    between atoms: _168  and  _169
REMARK   73  A    between atoms: _169  and  _170
REMARK   74  A    between atoms: _180  and  _181
REMARK   75  A    between atoms: _186  and  _188
REMARK   76  A    between atoms: _188  and  _189
REMARK   77  A    between atoms: _191  and  _193
REMARK   78  A    between atoms: _193  and  _194
REMARK   79  A    between atoms: _193  and  _196
REMARK   80  A    between atoms: _196  and  _197
REMARK   81  A    between atoms: _199  and  _201
REMARK   82  A    between atoms: _201  and  _202
REMARK   83  A    between atoms: _201  and  _204
REMARK   84  A    between atoms: _207  and  _209
REMARK   85  A    between atoms: _209  and  _210
REMARK   86  A    between atoms: _209  and  _212
REMARK   87  A    between atoms: _212  and  _213
REMARK   88  A    between atoms: _215  and  _217
REMARK   89  A    between atoms: _217  and  _218
REMARK   90  A    between atoms: _217  and  _220
REMARK   91  A    between atoms: _220  and  _221
REMARK   92  A    between atoms: _223  and  _225
REMARK   93  A    between atoms: _225  and  _226
REMARK   94  A    between atoms: _225  and  _228
REMARK   95  A    between atoms: _228  and  _229
REMARK   96  A    between atoms: _229  and  _230
REMARK   97  A    between atoms: _235  and  _237
REMARK   98  A    between atoms: _237  and  _238
REMARK   99  A    between atoms: _237  and  _240
REMARK  100  A    between atoms: _240  and  _241
REMARK  101  A    between atoms: _247  and  _249
REMARK  102  A    between atoms: _249  and  _250
REMARK  103  A    between atoms: _249  and  _252
REMARK  104  A    between atoms: _252  and  _253
REMARK  105  A    between atoms: _256  and  _258
REMARK  106  A    between atoms: _258  and  _259
REMARK  107  A    between atoms: _258  and  _261
REMARK  108  A    between atoms: _261  and  _262
REMARK  109  A    between atoms: _265  and  _267
REMARK  110  A    between atoms: _267  and  _268
REMARK  111  A    between atoms: _271  and  _273
REMARK  112  A    between atoms: _273  and  _274
REMARK  113  A    between atoms: _273  and  _276
REMARK  114  A    between atoms: _276  and  _277
REMARK  115  A    between atoms: _277  and  _278
REMARK  116  A    between atoms: _280  and  _282
REMARK  117  A    between atoms: _282  and  _283
REMARK  118  A    between atoms: _282  and  _285
REMARK  119  A    between atoms: _285  and  _286
REMARK  120  A    between atoms: _289  and  _291
REMARK  121  A    between atoms: _291  and  _292
REMARK  122  A    between atoms: _291  and  _294
REMARK  123  A    between atoms: _297  and  _299
REMARK  124  A    between atoms: _299  and  _300
REMARK  125  A    between atoms: _299  and  _302
REMARK  126  A    between atoms: _302  and  _303
REMARK  127  A    between atoms: _305  and  _307
REMARK  128  A    between atoms: _307  and  _308
REMARK  129  A    between atoms: _307  and  _310
REMARK  130  A    between atoms: _310  and  _311
REMARK  131  A    between atoms: _311  and  _312
REMARK  132  A    between atoms: _312  and  _313
REMARK  133  A    between atoms: _313  and  _314
REMARK  134  A    between atoms: _319  and  _320
REMARK  135  A    between atoms: _325  and  _327
REMARK  136  A    between atoms: _327  and  _328
REMARK  137  A    between atoms: _327  and  _330
REMARK  138  A    between atoms: _330  and  _331
REMARK  139  A    between atoms: _336  and  _337
REMARK  140  A    between atoms: _339  and  _341
REMARK  141  A    between atoms: _341  and  _342
REMARK  142  A    between atoms: _341  and  _344
REMARK  143  A    between atoms: _344  and  _345
REMARK  144  A    between atoms: _348  and  _350
REMARK  145  A    between atoms: _350  and  _351
REMARK  146  A    between atoms: _350  and  _353
REMARK  147  A    between atoms: _353  and  _354
REMARK  148  A    between atoms: _357  and  _359
REMARK  149  A    between atoms: _359  and  _360
REMARK  150  A    between atoms: _359  and  _362
REMARK  151  A    between atoms: _362  and  _363
REMARK  152  A    between atoms: _366  and  _368
REMARK  153  A    between atoms: _368  and  _369
REMARK  154  A    between atoms: _368  and  _371
REMARK  155  A    between atoms: _371  and  _372
REMARK  156  A    between atoms: _375  and  _377
REMARK  157  A    between atoms: _377  and  _378
REMARK  158  A    between atoms: _377  and  _380
REMARK  159  A    between atoms: _380  and  _381
REMARK  160  A    between atoms: _383  and  _385
REMARK  161  A    between atoms: _385  and  _386
REMARK  162  A    between atoms: _385  and  _388
REMARK  163  A    between atoms: _388  and  _389
REMARK  164  A    between atoms: _394  and  _395
REMARK  165  A    between atoms: _397  and  _399
REMARK  166  A    between atoms: _399  and  _400
REMARK  167  A    between atoms: _399  and  _402
REMARK  168  A    between atoms: _402  and  _403
REMARK  169  A    between atoms: _406  and  _408
REMARK  170  A    between atoms: _408  and  _409
REMARK  171  A    between atoms: _408  and  _411
REMARK  172  A    between atoms: _411  and  _412
REMARK  173  A    between atoms: _417  and  _419
REMARK  174  A    between atoms: _419  and  _420
REMARK  175  A    between atoms: _419  and  _422
REMARK  176  A    between atoms: _422  and  _423
REMARK  177  A    between atoms: _427  and  _428
REMARK  178  A    between atoms: _433  and  _435
REMARK  179  A    between atoms: _435  and  _436
REMARK  180  A    between atoms: _435  and  _438
REMARK  181  A    between atoms: _438  and  _439
REMARK  182  A    between atoms: _442  and  _444
REMARK  183  A    between atoms: _444  and  _445
REMARK  184  A    between atoms: _448  and  _450
REMARK  185  A    between atoms: _450  and  _451
REMARK  186  A    between atoms: _450  and  _453
REMARK  187  A    between atoms: _453  and  _454
REMARK  188  A    between atoms: _454  and  _455
REMARK  189  A    between atoms: _457  and  _459
REMARK  190  A    between atoms: _459  and  _460
REMARK  191  A    between atoms: _459  and  _462
REMARK  192  A    between atoms: _462  and  _463
REMARK  193  A    between atoms: _468  and  _470
REMARK  194  A    between atoms: _470  and  _471
REMARK  195  A    between atoms: _470  and  _473
REMARK  196  A    between atoms: _473  and  _474
REMARK  197  A    between atoms: _484  and  _486
REMARK  198  A    between atoms: _486  and  _487
REMARK  199  A    between atoms: _486  and  _489
REMARK  200  A    between atoms: _492  and  _494
REMARK  201  A    between atoms: _494  and  _495
REMARK  202  A    between atoms: _494  and  _497
REMARK  203  A    between atoms: _497  and  _498
REMARK  204  A    between atoms: _498  and  _499
REMARK  205  A    between atoms: _499  and  _500
REMARK  206  A    between atoms: _500  and  _501
REMARK  207  A    between atoms: _505  and  _507
REMARK  208  A    between atoms: _507  and  _508
REMARK  209  A    between atoms: _507  and  _510
REMARK  210  A    between atoms: _510  and  _511
REMARK  211  A    between atoms: _511  and  _512
REMARK  212  A    between atoms: _515  and  _517
REMARK  213  A    between atoms: _517  and  _518
REMARK  214  A    between atoms: _517  and  _520
REMARK  215  A    between atoms: _520  and  _521
REMARK  216  A    between atoms: _524  and  _526
REMARK  217  A    between atoms: _526  and  _527
REMARK  218  A    between atoms: _526  and  _529
REMARK  219  A    between atoms: _529  and  _530
REMARK  220  A    between atoms: _530  and  _531
REMARK  221  A    between atoms: _531  and  _532
REMARK  222  A    between atoms: _541  and  _543
REMARK  223  A    between atoms: _543  and  _544
REMARK  224  A    between atoms: _543  and  _546
REMARK  225  A    between atoms: _546  and  _547
REMARK  226  A    between atoms: _550  and  _552
REMARK  227  A    between atoms: _552  and  _553
REMARK  228  A    between atoms: _552  and  _555
REMARK  229  A    between atoms: _555  and  _556
REMARK  230  A    between atoms: _561  and  _563
REMARK  231  A    between atoms: _563  and  _564
REMARK  232  A    between atoms: _563  and  _566
REMARK  233  A    between atoms: _566  and  _567
REMARK  234  A    between atoms: _567  and  _568
REMARK  235  A    between atoms: _568  and  _569
REMARK  236  A    between atoms: _578  and  _580
REMARK  237  A    between atoms: _580  and  _581
REMARK  238  A    between atoms: _580  and  _583
REMARK  239  A    between atoms: _583  and  _584
REMARK  240  A    between atoms: _584  and  _585
REMARK  241  A    between atoms: _587  and  _589
REMARK  242  A    between atoms: _589  and  _590
REMARK  243  A    between atoms: _589  and  _592
REMARK  244  A    between atoms: _592  and  _593
REMARK  245  A    between atoms: _593  and  _594
REMARK  246  A    between atoms: _596  and  _598
REMARK  247  A    between atoms: _598  and  _599
REMARK  248  A    between atoms: _598  and  _601
REMARK  249  A    between atoms: _601  and  _602
REMARK  250  A    between atoms: _602  and  _603
REMARK  251  A    between atoms: _603  and  _604
REMARK  252  A    between atoms: _604  and  _605
REMARK  253  A    between atoms: _609  and  _611
REMARK  254  A    between atoms: _611  and  _612
REMARK  255  A    between atoms: _611  and  _614
REMARK  256  A    between atoms: _614  and  _615
REMARK                            x       y       z     vdW  Elec       q    Type
REMARK                         _______ _______ _______ _____ _____    ______ ____
ROOT
ATOM      1  CA  ASP A   1      67.421  13.858  25.223  0.00  0.00    +0.144 C 
ENDROOT
BRANCH   1   2
ATOM      2  N   ASP A   1      68.615  13.783  26.064  0.00  0.00    -0.239 NA
ATOM      3  H   ASP A   1      68.517  13.680  27.094  0.00  0.00    +0.142 HD
ENDBRANCH   1   2
BRANCH   1   4
ATOM      4  C   ASP A   1      67.327  15.166  24.470  0.00  0.00    +0.225 C 
ATOM      5  O   ASP A   1      66.901  15.185  23.315  0.00  0.00    -0.287 OA
ENDBRANCH   1   4
BRANCH   1   6
ATOM      6  CB  ASP A   1      66.143  13.700  26.044  0.00  0.00    +0.139 C 
BRANCH   6   7
ATOM      7  CG  ASP A   1      65.817  12.256  26.384  0.00  0.00    +0.367 C 
ATOM      8  OD2 ASP A   1      64.767  12.068  27.055  0.00  0.00    -0.246 OA
ATOM      9  OD1 ASP A   1      66.542  11.321  25.995  0.00  0.00    -0.246 OA
ENDBRANCH   6   7
ENDBRANCH   1   6
TORSDOF 4
REMARK  Name = ../refined-set-2016/1x8r/1x8r_pocket.pdb
REMARK  256 active torsions:
REMARK  status: ('A' for Active; 'I' for Inactive)
REMARK    1  A    between atoms: _1  and  _3
REMARK    2  A    between atoms: _3  and  _4
REMARK    3  A    between atoms: _3  and  _6
REMARK    4  A    between atoms: _6  and  _7
REMARK    5  A    between atoms: _9  and  _11
REMARK    6  A    between atoms: _11  and  _12
REMARK    7  A    between atoms: _11  and  _14
REMARK    8  A    between atoms: _14  and  _15
REMARK    9  A    between atoms: _15  and  _16
REMARK   10  A    between atoms: _16  and  _17
REMARK   11  A    between atoms: _17  and  _18
REMARK   12  A    between atoms: _22  and  _24
REMARK   13  A    between atoms: _24  and  _25
REMARK   14  A    between atoms: _24  and  _27
REMARK   15  A    between atoms: _27  and  _28
REMARK   16  A    between atoms: _30  and  _32
REMARK   17  A    between atoms: _32  and  _33
REMARK   18  A    between atoms: _32  and  _35
REMARK   19  A    between atoms: _38  and  _40
REMARK   20  A    between atoms: _40  and  _41
REMARK   21  A    between atoms: _40  and  _43
REMARK   22  A    between atoms: _43  and  _44
REMARK   23  A    between atoms: _46  and  _48
REMARK   24  A    between atoms: _48  and  _49
REMARK   25  A    between atoms: _48  and  _51
REMARK   26  A    between atoms: _51  and  _52
REMARK   27  A    between atoms: _57  and  _59
REMARK   28  A    between atoms: _59  and  _60
REMARK   29  A    between atoms: _59  and  _62
REMARK   30  A    between atoms: _62  and  _63
REMARK   31  A    between atoms: _63  and  _64
REMARK   32  A    between atoms: _64  and  _65
REMARK   33  A    between atoms: _74  and  _76
REMARK   34  A    between atoms: _76  and  _77
REMARK   35  A    between atoms: _76  and  _79
REMARK   36  A    between atoms: _79  and  _80
REMARK   37  A    between atoms: _83  and  _85
REMARK   38  A    between atoms: _85  and  _86
REMARK   39  A    between atoms: _85  and  _88
REMARK   40  A    between atoms: _88  and  _89
REMARK   41  A    between atoms: _94  and  _96
REMARK   42  A    between atoms: _96  and  _97
REMARK   43  A    between atoms: _100  and  _102
REMARK   44  A    between atoms: _102  and  _103
REMARK   45  A    between atoms: _105  and  _107
REMARK   46  A    between atoms: _107  and  _108
REMARK   47  A    between atoms: _107  and  _110
REMARK   48  A    between atoms: _110  and  _111
REMARK   49  A    between atoms: _114  and  _116
REMARK   50  A    between atoms: _116  and  _117
REMARK   51  A    between atoms: _120  and  _122
REMARK   52  A    between atoms: _122  and  _123
REMARK   53  A    between atoms: _122  and  _125
REMARK   54  A    between atoms: _125  and  _126
REMARK   55  A    between atoms: _126  and  _127
REMARK   56  A    between atoms: _129  and  _131
REMARK   57  A    between atoms: _131  and  _132
REMARK   58  A    between atoms: _131  and  _134
REMARK   59  A    between atoms: _134  and  _135
REMARK   60  A    between atoms: _135  and  _136
REMARK   61  A    between atoms: _136  and  _137
REMARK   62  A    between atoms: _147  and  _148
REMARK   63  A    between atoms: _153  and  _155
REMARK   64  A    between atoms: _155  and  _156
REMARK   65  A    between atoms: _155  and  _158
REMARK   66  A    between atoms: _158  and  _159
REMARK   67  A    between atoms: _159  and  _160
REMARK   68  A    between atoms: _162  and  _164
REMARK   69  A    between atoms: _164  and  _165
REMARK   70  A    between atoms: _164  and  _167
REMARK   71  A    between atoms: _167  and  _168
REMARK   72  A    between atoms: _168  and  _169
REMARK   73  A    between atoms: _169  and  _170
REMARK   74  A    between atoms: _180  and  _181
REMARK   75  A    between atoms: _186  and  _188
REMARK   76  A    between atoms: _188  and  _189
REMARK   77  A    between atoms: _191  and  _193
REMARK   78  A    between atoms: _193  and  _194
REMARK   79  A    between atoms: _193  and  _196
REMARK   80  A    between atoms: _196  and  _197
REMARK   81  A    between atoms: _199  and  _201
REMARK   82  A    between atoms: _201  and  _202
REMARK   83  A    between atoms: _201  and  _204
REMARK   84  A    between atoms: _207  and  _209
REMARK   85  A    between atoms: _209  and  _210
REMARK   86  A    between atoms: _209  and  _212
REMARK   87  A    between atoms: _212  and  _213
REMARK   88  A    between atoms: _215  and  _217
REMARK   89  A    between atoms: _217  and  _218
REMARK   90  A    between atoms: _217  and  _220
REMARK   91  A    between atoms: _220  and  _221
REMARK   92  A    between atoms: _223  and  _225
REMARK   93  A    between atoms: _225  and  _226
REMARK   94  A    between atoms: _225  and  _228
REMARK   95  A    between atoms: _228  and  _229
REMARK   96  A    between atoms: _229  and  _230
REMARK   97  A    between atoms: _235  and  _237
REMARK   98  A    between atoms: _237  and  _238
REMARK   99  A    between atoms: _237  and  _240
REMARK  100  A    between atoms: _240  and  _241
REMARK  101  A    between atoms: _247  and  _249
REMARK  102  A    between atoms: _249  and  _250
REMARK  103  A    between atoms: _249  and  _252
REMARK  104  A    between atoms: _252  and  _253
REMARK  105  A    between atoms: _256  and  _258
REMARK  106  A    between atoms: _258  and  _259
REMARK  107  A    between atoms: _258  and  _261
REMARK  108  A    between atoms: _261  and  _262
REMARK  109  A    between atoms: _265  and  _267
REMARK  110  A    between atoms: _267  and  _268
REMARK  111  A    between atoms: _271  and  _273
REMARK  112  A    between atoms: _273  and  _274
REMARK  113  A    between atoms: _273  and  _276
REMARK  114  A    between atoms: _276  and  _277
REMARK  115  A    between atoms: _277  and  _278
REMARK  116  A    between atoms: _280  and  _282
REMARK  117  A    between atoms: _282  and  _283
REMARK  118  A    between atoms: _282  and  _285
REMARK  119  A    between atoms: _285  and  _286
REMARK  120  A    between atoms: _289  and  _291
REMARK  121  A    between atoms: _291  and  _292
REMARK  122  A    between atoms: _291  and  _294
REMARK  123  A    between atoms: _297  and  _299
REMARK  124  A    between atoms: _299  and  _300
REMARK  125  A    between atoms: _299  and  _302
REMARK  126  A    between atoms: _302  and  _303
REMARK  127  A    between atoms: _305  and  _307
REMARK  128  A    between atoms: _307  and  _308
REMARK  129  A    between atoms: _307  and  _310
REMARK  130  A    between atoms: _310  and  _311
REMARK  131  A    between atoms: _311  and  _312
REMARK  132  A    between atoms: _312  and  _313
REMARK  133  A    between atoms: _313  and  _314
REMARK  134  A    between atoms: _319  and  _320
REMARK  135  A    between atoms: _325  and  _327
REMARK  136  A    between atoms: _327  and  _328
REMARK  137  A    between atoms: _327  and  _330
REMARK  138  A    between atoms: _330  and  _331
REMARK  139  A    between atoms: _336  and  _337
REMARK  140  A    between atoms: _339  and  _341
REMARK  141  A    between atoms: _341  and  _342
REMARK  142  A    between atoms: _341  and  _344
REMARK  143  A    between atoms: _344  and  _345
REMARK  144  A    between atoms: _348  and  _350
REMARK  145  A    between atoms: _350  and  _351
REMARK  146  A    between atoms: _350  and  _353
REMARK  147  A    between atoms: _353  and  _354
REMARK  148  A    between atoms: _357  and  _359
REMARK  149  A    between atoms: _359  and  _360
REMARK  150  A    between atoms: _359  and  _362
REMARK  151  A    between atoms: _362  and  _363
REMARK  152  A    between atoms: _366  and  _368
REMARK  153  A    between atoms: _368  and  _369
REMARK  154  A    between atoms: _368  and  _371
REMARK  155  A    between atoms: _371  and  _372
REMARK  156  A    between atoms: _375  and  _377
REMARK  157  A    between atoms: _377  and  _378
REMARK  158  A    between atoms: _377  and  _380
REMARK  159  A    between atoms: _380  and  _381
REMARK  160  A    between atoms: _383  and  _385
REMARK  161  A    between atoms: _385  and  _386
REMARK  162  A    between atoms: _385  and  _388
REMARK  163  A    between atoms: _388  and  _389
REMARK  164  A    between atoms: _394  and  _395
REMARK  165  A    between atoms: _397  and  _399
REMARK  166  A    between atoms: _399  and  _400
REMARK  167  A    between atoms: _399  and  _402
REMARK  168  A    between atoms: _402  and  _403
REMARK  169  A    between atoms: _406  and  _408
REMARK  170  A    between atoms: _408  and  _409
REMARK  171  A    between atoms: _408  and  _411
REMARK  172  A    between atoms: _411  and  _412
REMARK  173  A    between atoms: _417  and  _419
REMARK  174  A    between atoms: _419  and  _420
REMARK  175  A    between atoms: _419  and  _422
REMARK  176  A    between atoms: _422  and  _423
REMARK  177  A    between atoms: _427  and  _428
REMARK  178  A    between atoms: _433  and  _435
REMARK  179  A    between atoms: _435  and  _436
REMARK  180  A    between atoms: _435  and  _438
REMARK  181  A    between atoms: _438  and  _439
REMARK  182  A    between atoms: _442  and  _444
REMARK  183  A    between atoms: _444  and  _445
REMARK  184  A    between atoms: _448  and  _450
REMARK  185  A    between atoms: _450  and  _451
REMARK  186  A    between atoms: _450  and  _453
REMARK  187  A    between atoms: _453  and  _454
REMARK  188  A    between atoms: _454  and  _455
REMARK  189  A    between atoms: _457  and  _459
REMARK  190  A    between atoms: _459  and  _460
REMARK  191  A    between atoms: _459  and  _462
REMARK  192  A    between atoms: _462  and  _463
REMARK  193  A    between atoms: _468  and  _470
REMARK  194  A    between atoms: _470  and  _471
REMARK  195  A    between atoms: _470  and  _473
REMARK  196  A    between atoms: _473  and  _474
REMARK  197  A    between atoms: _484  and  _486
REMARK  198  A    between atoms: _486  and  _487
REMARK  199  A    between atoms: _486  and  _489
REMARK  200  A    between atoms: _492  and  _494
REMARK  201  A    between atoms: _494  and  _495
REMARK  202  A    between atoms: _494  and  _497
REMARK  203  A    between atoms: _497  and  _498
REMARK  204  A    between atoms: _498  and  _499
REMARK  205  A    between atoms: _499  and  _500
REMARK  206  A    between atoms: _500  and  _501
REMARK  207  A    between atoms: _505  and  _507
REMARK  208  A    between atoms: _507  and  _508
REMARK  209  A    between atoms: _507  and  _510
REMARK  210  A    between atoms: _510  and  _511
REMARK  211  A    between atoms: _511  and  _512
REMARK  212  A    between atoms: _515  and  _517
REMARK  213  A    between atoms: _517  and  _518
REMARK  214  A    between atoms: _517  and  _520
REMARK  215  A    between atoms: _520  and  _521
REMARK  216  A    between atoms: _524  and  _526
REMARK  217  A    between atoms: _526  and  _527
REMARK  218  A    between atoms: _526  and  _529
REMARK  219  A    between atoms: _529  and  _530
REMARK  220  A    between atoms: _530  and  _531
REMARK  221  A    between atoms: _531  and  _532
REMARK  222  A    between atoms: _541  and  _543
REMARK  223  A    between atoms: _543  and  _544
REMARK  224  A    between atoms: _543  and  _546
REMARK  225  A    between atoms: _546  and  _547
REMARK  226  A    between atoms: _550  and  _552
REMARK  227  A    between atoms: _552  and  _553
REMARK  228  A    between atoms: _552  and  _555
REMARK  229  A    between atoms: _555  and  _556
REMARK  230  A    between atoms: _561  and  _563
REMARK  231  A    between atoms: _563  and  _564
REMARK  232  A    between atoms: _563  and  _566
REMARK  233  A    between atoms: _566  and  _567
REMARK  234  A    between atoms: _567  and  _568
REMARK  235  A    between atoms: _568  and  _569
REMARK  236  A    between atoms: _578  and  _580
REMARK  237  A    between atoms: _580  and  _581
REMARK  238  A    between atoms: _580  and  _583
REMARK  239  A    between atoms: _583  and  _584
REMARK  240  A    between atoms: _584  and  _585
REMARK  241  A    between atoms: _587  and  _589
REMARK  242  A    between atoms: _589  and  _590
REMARK  243  A    between atoms: _589  and  _592
REMARK  244  A    between atoms: _592  and  _593
REMARK  245  A    between atoms: _593  and  _594
REMARK  246  A    between atoms: _596  and  _598
REMARK  247  A    between atoms: _598  and  _599
REMARK  248  A    between atoms: _598  and  _601
REMARK  249  A    between atoms: _601  and  _602
REMARK  250  A    between atoms: _602  and  _603
REMARK  251  A    between atoms: _603  and  _604
REMARK  252  A    between atoms: _604  and  _605
REMARK  253  A    between atoms: _609  and  _611
REMARK  254  A    between atoms: _611  and  _612
REMARK  255  A    between atoms: _611  and  _614
REMARK  256  A    between atoms: _614  and  _615
REMARK                            x       y       z     vdW  Elec       q    Type
REMARK                         _______ _______ _______ _____ _____    ______ ____
ROOT
ATOM      1  CA  ALA A   5      62.318  13.390  19.867  0.00  0.00    +0.149 C 
ATOM      2  CB  ALA A   5      63.848  13.324  19.876  0.00  0.00    +0.031 C 
ENDROOT
BRANCH   1   3
ATOM      3  C   ALA A   5      61.766  12.424  18.817  0.00  0.00    +0.241 C 
ATOM      4  N   MET A   6      61.870  11.130  19.089  0.00  0.00    -0.297 N 
ATOM      5  H   MET A   6      62.293  10.838  19.993  0.00  0.00    +0.150 HD
ATOM      6  O   ALA A   5      61.221  12.843  17.787  0.00  0.00    -0.273 OA
BRANCH   4   7
ATOM      7  CA  MET A   6      61.409  10.099  18.158  0.00  0.00    +0.149 C 
BRANCH   7   8
ATOM      8  C   MET A   6      59.941  10.192  17.770  0.00  0.00    +0.241 C 
ATOM      9  N   ARG A   7      59.046  10.256  18.756  0.00  0.00    -0.297 N 
ATOM     10  H   ARG A   7      59.343  10.270  19.752  0.00  0.00    +0.150 HD
ATOM     11  O   MET A   6      59.609  10.178  16.582  0.00  0.00    -0.273 OA
BRANCH   9  12
ATOM     12  CA  ARG A   7      57.639  10.305  18.390  0.00  0.00    +0.149 C 
BRANCH  12  13
ATOM     13  C   ARG A   7      57.263  11.618  17.684  0.00  0.00    +0.244 C 
ATOM     14  N   PRO A   8      57.628  12.778  18.259  0.00  0.00    -0.273 N 
ATOM     15  CD  PRO A   8      58.094  13.063  19.626  0.00  0.00    +0.094 C 
ATOM     16  CG  PRO A   8      57.490  14.442  19.880  0.00  0.00    +0.024 C 
ATOM     17  CB  PRO A   8      57.651  15.119  18.527  0.00  0.00    +0.030 C 
ATOM     18  CA  PRO A   8      57.244  14.014  17.551  0.00  0.00    +0.140 C 
ATOM     19  O   ARG A   7      56.681  11.586  16.600  0.00  0.00    -0.273 OA
BRANCH  18  20
ATOM     20  C   PRO A   8      57.855  14.175  16.166  0.00  0.00    +0.227 C 
ATOM     21  O   PRO A   8      57.161  14.560  15.229  0.00  0.00    -0.286 OA
ENDBRANCH  18  20
ENDBRANCH  12  13
BRANCH  12  22
ATOM     22  CB  ARG A   7      56.749  10.046  19.618  0.00  0.00    +0.033 C 
BRANCH  22  23
ATOM     23  CG  ARG A   7      56.565   8.549  19.960  0.00  0.00    +0.045 C 
BRANCH  23  24
ATOM     24  CD  ARG A   7      57.877   7.863  20.437  0.00  0.00    +0.174 C 
BRANCH  24  25
ATOM     25  NE  ARG A   7      57.652   6.481  20.881  0.00  0.00    -0.265 N 
ATOM     26  CZ  ARG A   7      57.303   6.128  22.118  0.00  0.00    +0.342 C 
ATOM     27  NH2 ARG A   7      57.143   7.049  23.060  0.00  0.00    -0.292 N 
ATOM     28 HH21 ARG A   7      56.871   6.766  24.023  0.00  0.00    +0.255 HD
ATOM     29 HH22 ARG A   7      57.290   8.054  22.835  0.00  0.00    +0.255 HD
ATOM     30  NH1 ARG A   7      57.129   4.853  22.419  0.00  0.00    -0.292 N 
ATOM     31 HH11 ARG A   7      56.857   4.579  23.385  0.00  0.00    +0.255 HD
ATOM     32 HH12 ARG A   7      57.264   4.123  21.690  0.00  0.00    +0.255 HD
ATOM     33  HE  ARG A   7      57.774   5.723  20.179  0.00  0.00    +0.259 HD
ENDBRANCH  24  25
ENDBRANCH  23  24
ENDBRANCH  22  23
ENDBRANCH  12  22
ENDBRANCH   9  12
ENDBRANCH   7   8
BRANCH   7  34
ATOM     34  CB  MET A   6      61.666   8.702  18.737  0.00  0.00    +0.041 C 
BRANCH  34  35
ATOM     35  CG  MET A   6      61.201   7.535  17.823  0.00  0.00    +0.060 C 
BRANCH  35  36
ATOM     36  SD  MET A   6      62.023   7.419  16.203  0.00  0.00    -0.139 S 
ATOM     37  CE  MET A   6      63.691   6.840  16.679  0.00  0.00    +0.069 C 
ENDBRANCH  35  36
ENDBRANCH  34  35
ENDBRANCH   7  34
ENDBRANCH   4   7
ENDBRANCH   1   3
BRANCH   1  40
ATOM     38  C   THR A   4      60.768  13.688  21.699  0.00  0.00    +0.243 C 
ATOM     39  O   THR A   4      60.437  14.787  21.272  0.00  0.00    -0.273 OA
ATOM     40  N   ALA A   5      61.741  12.957  21.143  0.00  0.00    -0.297 N 
ATOM     41  H   ALA A   5      62.083  12.093  21.610  0.00  0.00    +0.150 HD
BRANCH  38  42
ATOM     42  CA  THR A   4      60.102  13.129  22.937  0.00  0.00    +0.176 C 
BRANCH  42  44
ATOM     43  C   GLY A   3      60.282  10.732  22.599  0.00  0.00    +0.243 C 
ATOM     44  N   THR A   4      60.610  11.817  23.300  0.00  0.00    -0.295 N 
ATOM     45  H   THR A   4      61.241  11.723  24.121  0.00  0.00    +0.150 HD
ATOM     46  O   GLY A   3      59.577  10.764  21.584  0.00  0.00    -0.273 OA
BRANCH  43  47
ATOM     47  CA  GLY A   3      60.846   9.415  23.093  0.00  0.00    +0.176 C 
BRANCH  47  49
ATOM     48  C   ALA A   2      63.161   9.997  22.825  0.00  0.00    +0.241 C 
ATOM     49  N   GLY A   3      62.176   9.610  23.631  0.00  0.00    -0.295 N 
ATOM     50  H   GLY A   3      62.360   9.448  24.642  0.00  0.00    +0.150 HD
ATOM     51  O   ALA A   2      62.994  10.229  21.633  0.00  0.00    -0.273 OA
BRANCH  48  52
ATOM     52  CA  ALA A   2      64.520  10.204  23.455  0.00  0.00    +0.149 C 
ATOM     53  CB  ALA A   2      65.099  11.517  22.983  0.00  0.00    +0.031 C 
BRANCH  52  56
ATOM     54  C   ASN A   1      65.535   8.077  24.061  0.00  0.00    +0.239 C 
ATOM     55  O   ASN A   1      64.692   7.860  24.918  0.00  0.00    -0.274 OA
ATOM     56  N   ALA A   2      65.513   9.147  23.270  0.00  0.00    -0.297 N 
ATOM     57  H   ALA A   2      66.214   9.233  22.507  0.00  0.00    +0.150 HD
BRANCH  54  58
ATOM     58  CA  ASN A   1      66.662   7.076  23.839  0.00  0.00    +0.154 C 
BRANCH  58  59
ATOM     59  N   ASN A   1      67.764   7.756  23.180  0.00  0.00    -0.238 NA
ATOM     60  H   ASN A   1      68.213   8.565  23.654  0.00  0.00    +0.142 HD
ENDBRANCH  58  59
BRANCH  58  61
ATOM     61  CB  ASN A   1      67.103   6.558  25.213  0.00  0.00    +0.111 C 
BRANCH  61  62
ATOM     62  CG  ASN A   1      68.311   5.643  25.140  0.00  0.00    +0.221 C 
ATOM     63  ND2 ASN A   1      69.457   6.138  25.605  0.00  0.00    -0.329 N 
ATOM     64 HD21 ASN A   1      69.487   7.102  25.994  0.00  0.00    +0.145 HD
ATOM     65 HD22 ASN A   1      70.322   5.561  25.579  0.00  0.00    +0.145 HD
ATOM     66  OD1 ASN A   1      68.218   4.510  24.669  0.00  0.00    -0.275 OA
ENDBRANCH  61  62
ENDBRANCH  58  61
ENDBRANCH  54  58
ENDBRANCH  52  56
ENDBRANCH  48  52
ENDBRANCH  47  49
ENDBRANCH  43  47
ENDBRANCH  42  44
BRANCH  42  67
ATOM     67  CB  THR A   4      60.217  14.131  24.096  0.00  0.00    +0.137 C 
ATOM     68  CG2 THR A   4      59.416  13.646  25.286  0.00  0.00    +0.034 C 
BRANCH  67  69
ATOM     69  OG1 THR A   4      61.586  14.249  24.492  0.00  0.00    -0.382 OA
ATOM     70  HG1 THR A   4      61.921  13.365  24.786  0.00  0.00    +0.210 HD
ENDBRANCH  67  69
ENDBRANCH  42  67
ENDBRANCH  38  42
ENDBRANCH   1  40
TORSDOF 26
REMARK  Name = ../refined-set-2016/1x8r/1x8r_pocket.pdb
REMARK  256 active torsions:
REMARK  status: ('A' for Active; 'I' for Inactive)
REMARK    1  A    between atoms: _1  and  _3
REMARK    2  A    between atoms: _3  and  _4
REMARK    3  A    between atoms: _3  and  _6
REMARK    4  A    between atoms: _6  and  _7
REMARK    5  A    between atoms: _9  and  _11
REMARK    6  A    between atoms: _11  and  _12
REMARK    7  A    between atoms: _11  and  _14
REMARK    8  A    between atoms: _14  and  _15
REMARK    9  A    between atoms: _15  and  _16
REMARK   10  A    between atoms: _16  and  _17
REMARK   11  A    between atoms: _17  and  _18
REMARK   12  A    between atoms: _22  and  _24
REMARK   13  A    between atoms: _24  and  _25
REMARK   14  A    between atoms: _24  and  _27
REMARK   15  A    between atoms: _27  and  _28
REMARK   16  A    between atoms: _30  and  _32
REMARK   17  A    between atoms: _32  and  _33
REMARK   18  A    between atoms: _32  and  _35
REMARK   19  A    between atoms: _38  and  _40
REMARK   20  A    between atoms: _40  and  _41
REMARK   21  A    between atoms: _40  and  _43
REMARK   22  A    between atoms: _43  and  _44
REMARK   23  A    between atoms: _46  and  _48
REMARK   24  A    between atoms: _48  and  _49
REMARK   25  A    between atoms: _48  and  _51
REMARK   26  A    between atoms: _51  and  _52
REMARK   27  A    between atoms: _57  and  _59
REMARK   28  A    between atoms: _59  and  _60
REMARK   29  A    between atoms: _59  and  _62
REMARK   30  A    between atoms: _62  and  _63
REMARK   31  A    between atoms: _63  and  _64
REMARK   32  A    between atoms: _64  and  _65
REMARK   33  A    between atoms: _74  and  _76
REMARK   34  A    between atoms: _76  and  _77
REMARK   35  A    between atoms: _76  and  _79
REMARK   36  A    between atoms: _79  and  _80
REMARK   37  A    between atoms: _83  and  _85
REMARK   38  A    between atoms: _85  and  _86
REMARK   39  A    between atoms: _85  and  _88
REMARK   40  A    between atoms: _88  and  _89
REMARK   41  A    between atoms: _94  and  _96
REMARK   42  A    between atoms: _96  and  _97
REMARK   43  A    between atoms: _100  and  _102
REMARK   44  A    between atoms: _102  and  _103
REMARK   45  A    between atoms: _105  and  _107
REMARK   46  A    between atoms: _107  and  _108
REMARK   47  A    between atoms: _107  and  _110
REMARK   48  A    between atoms: _110  and  _111
REMARK   49  A    between atoms: _114  and  _116
REMARK   50  A    between atoms: _116  and  _117
REMARK   51  A    between atoms: _120  and  _122
REMARK   52  A    between atoms: _122  and  _123
REMARK   53  A    between atoms: _122  and  _125
REMARK   54  A    between atoms: _125  and  _126
REMARK   55  A    between atoms: _126  and  _127
REMARK   56  A    between atoms: _129  and  _131
REMARK   57  A    between atoms: _131  and  _132
REMARK   58  A    between atoms: _131  and  _134
REMARK   59  A    between atoms: _134  and  _135
REMARK   60  A    between atoms: _135  and  _136
REMARK   61  A    between atoms: _136  and  _137
REMARK   62  A    between atoms: _147  and  _148
REMARK   63  A    between atoms: _153  and  _155
REMARK   64  A    between atoms: _155  and  _156
REMARK   65  A    between atoms: _155  and  _158
REMARK   66  A    between atoms: _158  and  _159
REMARK   67  A    between atoms: _159  and  _160
REMARK   68  A    between atoms: _162  and  _164
REMARK   69  A    between atoms: _164  and  _165
REMARK   70  A    between atoms: _164  and  _167
REMARK   71  A    between atoms: _167  and  _168
REMARK   72  A    between atoms: _168  and  _169
REMARK   73  A    between atoms: _169  and  _170
REMARK   74  A    between atoms: _180  and  _181
REMARK   75  A    between atoms: _186  and  _188
REMARK   76  A    between atoms: _188  and  _189
REMARK   77  A    between atoms: _191  and  _193
REMARK   78  A    between atoms: _193  and  _194
REMARK   79  A    between atoms: _193  and  _196
REMARK   80  A    between atoms: _196  and  _197
REMARK   81  A    between atoms: _199  and  _201
REMARK   82  A    between atoms: _201  and  _202
REMARK   83  A    between atoms: _201  and  _204
REMARK   84  A    between atoms: _207  and  _209
REMARK   85  A    between atoms: _209  and  _210
REMARK   86  A    between atoms: _209  and  _212
REMARK   87  A    between atoms: _212  and  _213
REMARK   88  A    between atoms: _215  and  _217
REMARK   89  A    between atoms: _217  and  _218
REMARK   90  A    between atoms: _217  and  _220
REMARK   91  A    between atoms: _220  and  _221
REMARK   92  A    between atoms: _223  and  _225
REMARK   93  A    between atoms: _225  and  _226
REMARK   94  A    between atoms: _225  and  _228
REMARK   95  A    between atoms: _228  and  _229
REMARK   96  A    between atoms: _229  and  _230
REMARK   97  A    between atoms: _235  and  _237
REMARK   98  A    between atoms: _237  and  _238
REMARK   99  A    between atoms: _237  and  _240
REMARK  100  A    between atoms: _240  and  _241
REMARK  101  A    between atoms: _247  and  _249
REMARK  102  A    between atoms: _249  and  _250
REMARK  103  A    between atoms: _249  and  _252
REMARK  104  A    between atoms: _252  and  _253
REMARK  105  A    between atoms: _256  and  _258
REMARK  106  A    between atoms: _258  and  _259
REMARK  107  A    between atoms: _258  and  _261
REMARK  108  A    between atoms: _261  and  _262
REMARK  109  A    between atoms: _265  and  _267
REMARK  110  A    between atoms: _267  and  _268
REMARK  111  A    between atoms: _271  and  _273
REMARK  112  A    between atoms: _273  and  _274
REMARK  113  A    between atoms: _273  and  _276
REMARK  114  A    between atoms: _276  and  _277
REMARK  115  A    between atoms: _277  and  _278
REMARK  116  A    between atoms: _280  and  _282
REMARK  117  A    between atoms: _282  and  _283
REMARK  118  A    between atoms: _282  and  _285
REMARK  119  A    between atoms: _285  and  _286
REMARK  120  A    between atoms: _289  and  _291
REMARK  121  A    between atoms: _291  and  _292
REMARK  122  A    between atoms: _291  and  _294
REMARK  123  A    between atoms: _297  and  _299
REMARK  124  A    between atoms: _299  and  _300
REMARK  125  A    between atoms: _299  and  _302
REMARK  126  A    between atoms: _302  and  _303
REMARK  127  A    between atoms: _305  and  _307
REMARK  128  A    between atoms: _307  and  _308
REMARK  129  A    between atoms: _307  and  _310
REMARK  130  A    between atoms: _310  and  _311
REMARK  131  A    between atoms: _311  and  _312
REMARK  132  A    between atoms: _312  and  _313
REMARK  133  A    between atoms: _313  and  _314
REMARK  134  A    between atoms: _319  and  _320
REMARK  135  A    between atoms: _325  and  _327
REMARK  136  A    between atoms: _327  and  _328
REMARK  137  A    between atoms: _327  and  _330
REMARK  138  A    between atoms: _330  and  _331
REMARK  139  A    between atoms: _336  and  _337
REMARK  140  A    between atoms: _339  and  _341
REMARK  141  A    between atoms: _341  and  _342
REMARK  142  A    between atoms: _341  and  _344
REMARK  143  A    between atoms: _344  and  _345
REMARK  144  A    between atoms: _348  and  _350
REMARK  145  A    between atoms: _350  and  _351
REMARK  146  A    between atoms: _350  and  _353
REMARK  147  A    between atoms: _353  and  _354
REMARK  148  A    between atoms: _357  and  _359
REMARK  149  A    between atoms: _359  and  _360
REMARK  150  A    between atoms: _359  and  _362
REMARK  151  A    between atoms: _362  and  _363
REMARK  152  A    between atoms: _366  and  _368
REMARK  153  A    between atoms: _368  and  _369
REMARK  154  A    between atoms: _368  and  _371
REMARK  155  A    between atoms: _371  and  _372
REMARK  156  A    between atoms: _375  and  _377
REMARK  157  A    between atoms: _377  and  _378
REMARK  158  A    between atoms: _377  and  _380
REMARK  159  A    between atoms: _380  and  _381
REMARK  160  A    between atoms: _383  and  _385
REMARK  161  A    between atoms: _385  and  _386
REMARK  162  A    between atoms: _385  and  _388
REMARK  163  A    between atoms: _388  and  _389
REMARK  164  A    between atoms: _394  and  _395
REMARK  165  A    between atoms: _397  and  _399
REMARK  166  A    between atoms: _399  and  _400
REMARK  167  A    between atoms: _399  and  _402
REMARK  168  A    between atoms: _402  and  _403
REMARK  169  A    between atoms: _406  and  _408
REMARK  170  A    between atoms: _408  and  _409
REMARK  171  A    between atoms: _408  and  _411
REMARK  172  A    between atoms: _411  and  _412
REMARK  173  A    between atoms: _417  and  _419
REMARK  174  A    between atoms: _419  and  _420
REMARK  175  A    between atoms: _419  and  _422
REMARK  176  A    between atoms: _422  and  _423
REMARK  177  A    between atoms: _427  and  _428
REMARK  178  A    between atoms: _433  and  _435
REMARK  179  A    between atoms: _435  and  _436
REMARK  180  A    between atoms: _435  and  _438
REMARK  181  A    between atoms: _438  and  _439
REMARK  182  A    between atoms: _442  and  _444
REMARK  183  A    between atoms: _444  and  _445
REMARK  184  A    between atoms: _448  and  _450
REMARK  185  A    between atoms: _450  and  _451
REMARK  186  A    between atoms: _450  and  _453
REMARK  187  A    between atoms: _453  and  _454
REMARK  188  A    between atoms: _454  and  _455
REMARK  189  A    between atoms: _457  and  _459
REMARK  190  A    between atoms: _459  and  _460
REMARK  191  A    between atoms: _459  and  _462
REMARK  192  A    between atoms: _462  and  _463
REMARK  193  A    between atoms: _468  and  _470
REMARK  194  A    between atoms: _470  and  _471
REMARK  195  A    between atoms: _470  and  _473
REMARK  196  A    between atoms: _473  and  _474
REMARK  197  A    between atoms: _484  and  _486
REMARK  198  A    between atoms: _486  and  _487
REMARK  199  A    between atoms: _486  and  _489
REMARK  200  A    between atoms: _492  and  _494
REMARK  201  A    between atoms: _494  and  _495
REMARK  202  A    between atoms: _494  and  _497
REMARK  203  A    between atoms: _497  and  _498
REMARK  204  A    between atoms: _498  and  _499
REMARK  205  A    between atoms: _499  and  _500
REMARK  206  A    between atoms: _500  and  _501
REMARK  207  A    between atoms: _505  and  _507
REMARK  208  A    between atoms: _507  and  _508
REMARK  209  A    between atoms: _507  and  _510
REMARK  210  A    between atoms: _510  and  _511
REMARK  211  A    between atoms: _511  and  _512
REMARK  212  A    between atoms: _515  and  _517
REMARK  213  A    between atoms: _517  and  _518
REMARK  214  A    between atoms: _517  and  _520
REMARK  215  A    between atoms: _520  and  _521
REMARK  216  A    between atoms: _524  and  _526
REMARK  217  A    between atoms: _526  and  _527
REMARK  218  A    between atoms: _526  and  _529
REMARK  219  A    between atoms: _529  and  _530
REMARK  220  A    between atoms: _530  and  _531
REMARK  221  A    between atoms: _531  and  _532
REMARK  222  A    between atoms: _541  and  _543
REMARK  223  A    between atoms: _543  and  _544
REMARK  224  A    between atoms: _543  and  _546
REMARK  225  A    between atoms: _546  and  _547
REMARK  226  A    between atoms: _550  and  _552
REMARK  227  A    between atoms: _552  and  _553
REMARK  228  A    between atoms: _552  and  _555
REMARK  229  A    between atoms: _555  and  _556
REMARK  230  A    between atoms: _561  and  _563
REMARK  231  A    between atoms: _563  and  _564
REMARK  232  A    between atoms: _563  and  _566
REMARK  233  A    between atoms: _566  and  _567
REMARK  234  A    between atoms: _567  and  _568
REMARK  235  A    between atoms: _568  and  _569
REMARK  236  A    between atoms: _578  and  _580
REMARK  237  A    between atoms: _580  and  _581
REMARK  238  A    between atoms: _580  and  _583
REMARK  239  A    between atoms: _583  and  _584
REMARK  240  A    between atoms: _584  and  _585
REMARK  241  A    between atoms: _587  and  _589
REMARK  242  A    between atoms: _589  and  _590
REMARK  243  A    between atoms: _589  and  _592
REMARK  244  A    between atoms: _592  and  _593
REMARK  245  A    between atoms: _593  and  _594
REMARK  246  A    between atoms: _596  and  _598
REMARK  247  A    between atoms: _598  and  _599
REMARK  248  A    between atoms: _598  and  _601
REMARK  249  A    between atoms: _601  and  _602
REMARK  250  A    between atoms: _602  and  _603
REMARK  251  A    between atoms: _603  and  _604
REMARK  252  A    between atoms: _604  and  _605
REMARK  253  A    between atoms: _609  and  _611
REMARK  254  A    between atoms: _611  and  _612
REMARK  255  A    between atoms: _611  and  _614
REMARK  256  A    between atoms: _614  and  _615
REMARK                            x       y       z     vdW  Elec       q    Type
REMARK                         _______ _______ _______ _____ _____    ______ ____
ROOT
ATOM      1  CA  MET A   1      64.635   2.689  21.187  0.00  0.00    +0.134 C 
ENDROOT
BRANCH   1   2
ATOM      2  N   MET A   1      65.630   1.900  21.918  0.00  0.00    -0.239 NA
ATOM      3  H   MET A   1      66.636   2.162  21.880  0.00  0.00    +0.142 HD
ENDBRANCH   1   2
BRANCH   1   4
ATOM      4  C   MET A   1      63.994   1.839  20.094  0.00  0.00    +0.224 C 
ATOM      5  O   MET A   1      62.824   2.060  19.713  0.00  0.00    -0.287 OA
ENDBRANCH   1   4
BRANCH   1   6
ATOM      6  CB  MET A   1      65.271   3.943  20.590  0.00  0.00    +0.037 C 
BRANCH   6   7
ATOM      7  CG  MET A   1      64.300   4.776  19.745  0.00  0.00    +0.059 C 
BRANCH   7   8
ATOM      8  SD  MET A   1      62.733   5.254  20.594  0.00  0.00    -0.139 S 
ATOM      9  CE  MET A   1      63.399   6.490  21.747  0.00  0.00    +0.069 C 
ENDBRANCH   7   8
ENDBRANCH   6   7
ENDBRANCH   1   6
TORSDOF 5
REMARK  Name = ../refined-set-2016/1x8r/1x8r_pocket.pdb
REMARK  256 active torsions:
REMARK  status: ('A' for Active; 'I' for Inactive)
REMARK    1  A    between atoms: _1  and  _3
REMARK    2  A    between atoms: _3  and  _4
REMARK    3  A    between atoms: _3  and  _6
REMARK    4  A    between atoms: _6  and  _7
REMARK    5  A    between atoms: _9  and  _11
REMARK    6  A    between atoms: _11  and  _12
REMARK    7  A    between atoms: _11  and  _14
REMARK    8  A    between atoms: _14  and  _15
REMARK    9  A    between atoms: _15  and  _16
REMARK   10  A    between atoms: _16  and  _17
REMARK   11  A    between atoms: _17  and  _18
REMARK   12  A    between atoms: _22  and  _24
REMARK   13  A    between atoms: _24  and  _25
REMARK   14  A    between atoms: _24  and  _27
REMARK   15  A    between atoms: _27  and  _28
REMARK   16  A    between atoms: _30  and  _32
REMARK   17  A    between atoms: _32  and  _33
REMARK   18  A    between atoms: _32  and  _35
REMARK   19  A    between atoms: _38  and  _40
REMARK   20  A    between atoms: _40  and  _41
REMARK   21  A    between atoms: _40  and  _43
REMARK   22  A    between atoms: _43  and  _44
REMARK   23  A    between atoms: _46  and  _48
REMARK   24  A    between atoms: _48  and  _49
REMARK   25  A    between atoms: _48  and  _51
REMARK   26  A    between atoms: _51  and  _52
REMARK   27  A    between atoms: _57  and  _59
REMARK   28  A    between atoms: _59  and  _60
REMARK   29  A    between atoms: _59  and  _62
REMARK   30  A    between atoms: _62  and  _63
REMARK   31  A    between atoms: _63  and  _64
REMARK   32  A    between atoms: _64  and  _65
REMARK   33  A    between atoms: _74  and  _76
REMARK   34  A    between atoms: _76  and  _77
REMARK   35  A    between atoms: _76  and  _79
REMARK   36  A    between atoms: _79  and  _80
REMARK   37  A    between atoms: _83  and  _85
REMARK   38  A    between atoms: _85  and  _86
REMARK   39  A    between atoms: _85  and  _88
REMARK   40  A    between atoms: _88  and  _89
REMARK   41  A    between atoms: _94  and  _96
REMARK   42  A    between atoms: _96  and  _97
REMARK   43  A    between atoms: _100  and  _102
REMARK   44  A    between atoms: _102  and  _103
REMARK   45  A    between atoms: _105  and  _107
REMARK   46  A    between atoms: _107  and  _108
REMARK   47  A    between atoms: _107  and  _110
REMARK   48  A    between atoms: _110  and  _111
REMARK   49  A    between atoms: _114  and  _116
REMARK   50  A    between atoms: _116  and  _117
REMARK   51  A    between atoms: _120  and  _122
REMARK   52  A    between atoms: _122  and  _123
REMARK   53  A    between atoms: _122  and  _125
REMARK   54  A    between atoms: _125  and  _126
REMARK   55  A    between atoms: _126  and  _127
REMARK   56  A    between atoms: _129  and  _131
REMARK   57  A    between atoms: _131  and  _132
REMARK   58  A    between atoms: _131  and  _134
REMARK   59  A    between atoms: _134  and  _135
REMARK   60  A    between atoms: _135  and  _136
REMARK   61  A    between atoms: _136  and  _137
REMARK   62  A    between atoms: _147  and  _148
REMARK   63  A    between atoms: _153  and  _155
REMARK   64  A    between atoms: _155  and  _156
REMARK   65  A    between atoms: _155  and  _158
REMARK   66  A    between atoms: _158  and  _159
REMARK   67  A    between atoms: _159  and  _160
REMARK   68  A    between atoms: _162  and  _164
REMARK   69  A    between atoms: _164  and  _165
REMARK   70  A    between atoms: _164  and  _167
REMARK   71  A    between atoms: _167  and  _168
REMARK   72  A    between atoms: _168  and  _169
REMARK   73  A    between atoms: _169  and  _170
REMARK   74  A    between atoms: _180  and  _181
REMARK   75  A    between atoms: _186  and  _188
REMARK   76  A    between atoms: _188  and  _189
REMARK   77  A    between atoms: _191  and  _193
REMARK   78  A    between atoms: _193  and  _194
REMARK   79  A    between atoms: _193  and  _196
REMARK   80  A    between atoms: _196  and  _197
REMARK   81  A    between atoms: _199  and  _201
REMARK   82  A    between atoms: _201  and  _202
REMARK   83  A    between atoms: _201  and  _204
REMARK   84  A    between atoms: _207  and  _209
REMARK   85  A    between atoms: _209  and  _210
REMARK   86  A    between atoms: _209  and  _212
REMARK   87  A    between atoms: _212  and  _213
REMARK   88  A    between atoms: _215  and  _217
REMARK   89  A    between atoms: _217  and  _218
REMARK   90  A    between atoms: _217  and  _220
REMARK   91  A    between atoms: _220  and  _221
REMARK   92  A    between atoms: _223  and  _225
REMARK   93  A    between atoms: _225  and  _226
REMARK   94  A    between atoms: _225  and  _228
REMARK   95  A    between atoms: _228  and  _229
REMARK   96  A    between atoms: _229  and  _230
REMARK   97  A    between atoms: _235  and  _237
REMARK   98  A    between atoms: _237  and  _238
REMARK   99  A    between atoms: _237  and  _240
REMARK  100  A    between atoms: _240  and  _241
REMARK  101  A    between atoms: _247  and  _249
REMARK  102  A    between atoms: _249  and  _250
REMARK  103  A    between atoms: _249  and  _252
REMARK  104  A    between atoms: _252  and  _253
REMARK  105  A    between atoms: _256  and  _258
REMARK  106  A    between atoms: _258  and  _259
REMARK  107  A    between atoms: _258  and  _261
REMARK  108  A    between atoms: _261  and  _262
REMARK  109  A    between atoms: _265  and  _267
REMARK  110  A    between atoms: _267  and  _268
REMARK  111  A    between atoms: _271  and  _273
REMARK  112  A    between atoms: _273  and  _274
REMARK  113  A    between atoms: _273  and  _276
REMARK  114  A    between atoms: _276  and  _277
REMARK  115  A    between atoms: _277  and  _278
REMARK  116  A    between atoms: _280  and  _282
REMARK  117  A    between atoms: _282  and  _283
REMARK  118  A    between atoms: _282  and  _285
REMARK  119  A    between atoms: _285  and  _286
REMARK  120  A    between atoms: _289  and  _291
REMARK  121  A    between atoms: _291  and  _292
REMARK  122  A    between atoms: _291  and  _294
REMARK  123  A    between atoms: _297  and  _299
REMARK  124  A    between atoms: _299  and  _300
REMARK  125  A    between atoms: _299  and  _302
REMARK  126  A    between atoms: _302  and  _303
REMARK  127  A    between atoms: _305  and  _307
REMARK  128  A    between atoms: _307  and  _308
REMARK  129  A    between atoms: _307  and  _310
REMARK  130  A    between atoms: _310  and  _311
REMARK  131  A    between atoms: _311  and  _312
REMARK  132  A    between atoms: _312  and  _313
REMARK  133  A    between atoms: _313  and  _314
REMARK  134  A    between atoms: _319  and  _320
REMARK  135  A    between atoms: _325  and  _327
REMARK  136  A    between atoms: _327  and  _328
REMARK  137  A    between atoms: _327  and  _330
REMARK  138  A    between atoms: _330  and  _331
REMARK  139  A    between atoms: _336  and  _337
REMARK  140  A    between atoms: _339  and  _341
REMARK  141  A    between atoms: _341  and  _342
REMARK  142  A    between atoms: _341  and  _344
REMARK  143  A    between atoms: _344  and  _345
REMARK  144  A    between atoms: _348  and  _350
REMARK  145  A    between atoms: _350  and  _351
REMARK  146  A    between atoms: _350  and  _353
REMARK  147  A    between atoms: _353  and  _354
REMARK  148  A    between atoms: _357  and  _359
REMARK  149  A    between atoms: _359  and  _360
REMARK  150  A    between atoms: _359  and  _362
REMARK  151  A    between atoms: _362  and  _363
REMARK  152  A    between atoms: _366  and  _368
REMARK  153  A    between atoms: _368  and  _369
REMARK  154  A    between atoms: _368  and  _371
REMARK  155  A    between atoms: _371  and  _372
REMARK  156  A    between atoms: _375  and  _377
REMARK  157  A    between atoms: _377  and  _378
REMARK  158  A    between atoms: _377  and  _380
REMARK  159  A    between atoms: _380  and  _381
REMARK  160  A    between atoms: _383  and  _385
REMARK  161  A    between atoms: _385  and  _386
REMARK  162  A    between atoms: _385  and  _388
REMARK  163  A    between atoms: _388  and  _389
REMARK  164  A    between atoms: _394  and  _395
REMARK  165  A    between atoms: _397  and  _399
REMARK  166  A    between atoms: _399  and  _400
REMARK  167  A    between atoms: _399  and  _402
REMARK  168  A    between atoms: _402  and  _403
REMARK  169  A    between atoms: _406  and  _408
REMARK  170  A    between atoms: _408  and  _409
REMARK  171  A    between atoms: _408  and  _411
REMARK  172  A    between atoms: _411  and  _412
REMARK  173  A    between atoms: _417  and  _419
REMARK  174  A    between atoms: _419  and  _420
REMARK  175  A    between atoms: _419  and  _422
REMARK  176  A    between atoms: _422  and  _423
REMARK  177  A    between atoms: _427  and  _428
REMARK  178  A    between atoms: _433  and  _435
REMARK  179  A    between atoms: _435  and  _436
REMARK  180  A    between atoms: _435  and  _438
REMARK  181  A    between atoms: _438  and  _439
REMARK  182  A    between atoms: _442  and  _444
REMARK  183  A    between atoms: _444  and  _445
REMARK  184  A    between atoms: _448  and  _450
REMARK  185  A    between atoms: _450  and  _451
REMARK  186  A    between atoms: _450  and  _453
REMARK  187  A    between atoms: _453  and  _454
REMARK  188  A    between atoms: _454  and  _455
REMARK  189  A    between atoms: _457  and  _459
REMARK  190  A    between atoms: _459  and  _460
REMARK  191  A    between atoms: _459  and  _462
REMARK  192  A    between atoms: _462  and  _463
REMARK  193  A    between atoms: _468  and  _470
REMARK  194  A    between atoms: _470  and  _471
REMARK  195  A    between atoms: _470  and  _473
REMARK  196  A    between atoms: _473  and  _474
REMARK  197  A    between atoms: _484  and  _486
REMARK  198  A    between atoms: _486  and  _487
REMARK  199  A    between atoms: _486  and  _489
REMARK  200  A    between atoms: _492  and  _494
REMARK  201  A    between atoms: _494  and  _495
REMARK  202  A    between atoms: _494  and  _497
REMARK  203  A    between atoms: _497  and  _498
REMARK  204  A    between atoms: _498  and  _499
REMARK  205  A    between atoms: _499  and  _500
REMARK  206  A    between atoms: _500  and  _501
REMARK  207  A    between atoms: _505  and  _507
REMARK  208  A    between atoms: _507  and  _508
REMARK  209  A    between atoms: _507  and  _510
REMARK  210  A    between atoms: _510  and  _511
REMARK  211  A    between atoms: _511  and  _512
REMARK  212  A    between atoms: _515  and  _517
REMARK  213  A    between atoms: _517  and  _518
REMARK  214  A    between atoms: _517  and  _520
REMARK  215  A    between atoms: _520  and  _521
REMARK  216  A    between atoms: _524  and  _526
REMARK  217  A    between atoms: _526  and  _527
REMARK  218  A    between atoms: _526  and  _529
REMARK  219  A    between atoms: _529  and  _530
REMARK  220  A    between atoms: _530  and  _531
REMARK  221  A    between atoms: _531  and  _532
REMARK  222  A    between atoms: _541  and  _543
REMARK  223  A    between atoms: _543  and  _544
REMARK  224  A    between atoms: _543  and  _546
REMARK  225  A    between atoms: _546  and  _547
REMARK  226  A    between atoms: _550  and  _552
REMARK  227  A    between atoms: _552  and  _553
REMARK  228  A    between atoms: _552  and  _555
REMARK  229  A    between atoms: _555  and  _556
REMARK  230  A    between atoms: _561  and  _563
REMARK  231  A    between atoms: _563  and  _564
REMARK  232  A    between atoms: _563  and  _566
REMARK  233  A    between atoms: _566  and  _567
REMARK  234  A    between atoms: _567  and  _568
REMARK  235  A    between atoms: _568  and  _569
REMARK  236  A    between atoms: _578  and  _580
REMARK  237  A    between atoms: _580  and  _581
REMARK  238  A    between atoms: _580  and  _583
REMARK  239  A    between atoms: _583  and  _584
REMARK  240  A    between atoms: _584  and  _585
REMARK  241  A    between atoms: _587  and  _589
REMARK  242  A    between atoms: _589  and  _590
REMARK  243  A    between atoms: _589  and  _592
REMARK  244  A    between atoms: _592  and  _593
REMARK  245  A    between atoms: _593  and  _594
REMARK  246  A    between atoms: _596  and  _598
REMARK  247  A    between atoms: _598  and  _599
REMARK  248  A    between atoms: _598  and  _601
REMARK  249  A    between atoms: _601  and  _602
REMARK  250  A    between atoms: _602  and  _603
REMARK  251  A    between atoms: _603  and  _604
REMARK  252  A    between atoms: _604  and  _605
REMARK  253  A    between atoms: _609  and  _611
REMARK  254  A    between atoms: _611  and  _612
REMARK  255  A    between atoms: _611  and  _614
REMARK  256  A    between atoms: _614  and  _615
REMARK                            x       y       z     vdW  Elec       q    Type
REMARK                         _______ _______ _______ _____ _____    ______ ____
ROOT
ATOM      1  CA  ARG A   1      59.843   1.002  22.194  0.00  0.00    +0.145 C 
ENDROOT
BRANCH   1   2
ATOM      2  C   ARG A   1      58.855   1.166  21.048  0.00  0.00    +0.241 C 
ATOM      3  N   PRO A   2      57.595   0.799  21.289  0.00  0.00    -0.273 N 
ATOM      4  CD  PRO A   2      57.007   0.410  22.583  0.00  0.00    +0.094 C 
ATOM      5  CG  PRO A   2      55.514   0.610  22.338  0.00  0.00    +0.024 C 
ATOM      6  CB  PRO A   2      55.354   0.253  20.931  0.00  0.00    +0.030 C 
ATOM      7  CA  PRO A   2      56.567   0.874  20.250  0.00  0.00    +0.140 C 
ATOM      8  O   ARG A   1      59.200   1.631  19.959  0.00  0.00    -0.273 OA
BRANCH   7   9
ATOM      9  C   PRO A   2      56.248   2.211  19.605  0.00  0.00    +0.227 C 
ATOM     10  O   PRO A   2      56.289   3.248  20.246  0.00  0.00    -0.286 OA
ENDBRANCH   7   9
ENDBRANCH   1   2
BRANCH   1  11
ATOM     11  N   ARG A   1      60.929   0.184  21.635  0.00  0.00    -0.238 NA
ATOM     12  H   ARG A   1      61.648   0.632  21.032  0.00  0.00    +0.142 HD
ENDBRANCH   1  11
BRANCH   1  13
ATOM     13  CB  ARG A   1      60.356   2.341  22.703  0.00  0.00    +0.030 C 
BRANCH  13  14
ATOM     14  CG  ARG A   1      61.268   2.143  23.918  0.00  0.00    +0.045 C 
BRANCH  14  15
ATOM     15  CD  ARG A   1      61.694   3.439  24.588  0.00  0.00    +0.174 C 
BRANCH  15  16
ATOM     16  NE  ARG A   1      60.530   4.208  25.031  0.00  0.00    -0.265 N 
ATOM     17  CZ  ARG A   1      60.592   5.456  25.482  0.00  0.00    +0.342 C 
ATOM     18  NH2 ARG A   1      59.480   6.089  25.851  0.00  0.00    -0.292 N 
ATOM     19 HH21 ARG A   1      59.531   7.066  26.204  0.00  0.00    +0.255 HD
ATOM     20 HH22 ARG A   1      58.561   5.606  25.786  0.00  0.00    +0.255 HD
ATOM     21  NH1 ARG A   1      61.771   6.067  25.578  0.00  0.00    -0.292 N 
ATOM     22 HH11 ARG A   1      61.823   7.044  25.931  0.00  0.00    +0.255 HD
ATOM     23 HH12 ARG A   1      62.640   5.567  25.300  0.00  0.00    +0.255 HD
ATOM     24  HE  ARG A   1      59.597   3.749  24.990  0.00  0.00    +0.259 HD
ENDBRANCH  15  16
ENDBRANCH  14  15
ENDBRANCH  13  14
ENDBRANCH   1  13
TORSDOF 7
REMARK  Name = ../refined-set-2016/1x8r/1x8r_pocket.pdb
REMARK  256 active torsions:
REMARK  status: ('A' for Active; 'I' for Inactive)
REMARK    1  A    between atoms: _1  and  _3
REMARK    2  A    between atoms: _3  and  _4
REMARK    3  A    between atoms: _3  and  _6
REMARK    4  A    between atoms: _6  and  _7
REMARK    5  A    between atoms: _9  and  _11
REMARK    6  A    between atoms: _11  and  _12
REMARK    7  A    between atoms: _11  and  _14
REMARK    8  A    between atoms: _14  and  _15
REMARK    9  A    between atoms: _15  and  _16
REMARK   10  A    between atoms: _16  and  _17
REMARK   11  A    between atoms: _17  and  _18
REMARK   12  A    between atoms: _22  and  _24
REMARK   13  A    between atoms: _24  and  _25
REMARK   14  A    between atoms: _24  and  _27
REMARK   15  A    between atoms: _27  and  _28
REMARK   16  A    between atoms: _30  and  _32
REMARK   17  A    between atoms: _32  and  _33
REMARK   18  A    between atoms: _32  and  _35
REMARK   19  A    between atoms: _38  and  _40
REMARK   20  A    between atoms: _40  and  _41
REMARK   21  A    between atoms: _40  and  _43
REMARK   22  A    between atoms: _43  and  _44
REMARK   23  A    between atoms: _46  and  _48
REMARK   24  A    between atoms: _48  and  _49
REMARK   25  A    between atoms: _48  and  _51
REMARK   26  A    between atoms: _51  and  _52
REMARK   27  A    between atoms: _57  and  _59
REMARK   28  A    between atoms: _59  and  _60
REMARK   29  A    between atoms: _59  and  _62
REMARK   30  A    between atoms: _62  and  _63
REMARK   31  A    between atoms: _63  and  _64
REMARK   32  A    between atoms: _64  and  _65
REMARK   33  A    between atoms: _74  and  _76
REMARK   34  A    between atoms: _76  and  _77
REMARK   35  A    between atoms: _76  and  _79
REMARK   36  A    between atoms: _79  and  _80
REMARK   37  A    between atoms: _83  and  _85
REMARK   38  A    between atoms: _85  and  _86
REMARK   39  A    between atoms: _85  and  _88
REMARK   40  A    between atoms: _88  and  _89
REMARK   41  A    between atoms: _94  and  _96
REMARK   42  A    between atoms: _96  and  _97
REMARK   43  A    between atoms: _100  and  _102
REMARK   44  A    between atoms: _102  and  _103
REMARK   45  A    between atoms: _105  and  _107
REMARK   46  A    between atoms: _107  and  _108
REMARK   47  A    between atoms: _107  and  _110
REMARK   48  A    between atoms: _110  and  _111
REMARK   49  A    between atoms: _114  and  _116
REMARK   50  A    between atoms: _116  and  _117
REMARK   51  A    between atoms: _120  and  _122
REMARK   52  A    between atoms: _122  and  _123
REMARK   53  A    between atoms: _122  and  _125
REMARK   54  A    between atoms: _125  and  _126
REMARK   55  A    between atoms: _126  and  _127
REMARK   56  A    between atoms: _129  and  _131
REMARK   57  A    between atoms: _131  and  _132
REMARK   58  A    between atoms: _131  and  _134
REMARK   59  A    between atoms: _134  and  _135
REMARK   60  A    between atoms: _135  and  _136
REMARK   61  A    between atoms: _136  and  _137
REMARK   62  A    between atoms: _147  and  _148
REMARK   63  A    between atoms: _153  and  _155
REMARK   64  A    between atoms: _155  and  _156
REMARK   65  A    between atoms: _155  and  _158
REMARK   66  A    between atoms: _158  and  _159
REMARK   67  A    between atoms: _159  and  _160
REMARK   68  A    between atoms: _162  and  _164
REMARK   69  A    between atoms: _164  and  _165
REMARK   70  A    between atoms: _164  and  _167
REMARK   71  A    between atoms: _167  and  _168
REMARK   72  A    between atoms: _168  and  _169
REMARK   73  A    between atoms: _169  and  _170
REMARK   74  A    between atoms: _180  and  _181
REMARK   75  A    between atoms: _186  and  _188
REMARK   76  A    between atoms: _188  and  _189
REMARK   77  A    between atoms: _191  and  _193
REMARK   78  A    between atoms: _193  and  _194
REMARK   79  A    between atoms: _193  and  _196
REMARK   80  A    between atoms: _196  and  _197
REMARK   81  A    between atoms: _199  and  _201
REMARK   82  A    between atoms: _201  and  _202
REMARK   83  A    between atoms: _201  and  _204
REMARK   84  A    between atoms: _207  and  _209
REMARK   85  A    between atoms: _209  and  _210
REMARK   86  A    between atoms: _209  and  _212
REMARK   87  A    between atoms: _212  and  _213
REMARK   88  A    between atoms: _215  and  _217
REMARK   89  A    between atoms: _217  and  _218
REMARK   90  A    between atoms: _217  and  _220
REMARK   91  A    between atoms: _220  and  _221
REMARK   92  A    between atoms: _223  and  _225
REMARK   93  A    between atoms: _225  and  _226
REMARK   94  A    between atoms: _225  and  _228
REMARK   95  A    between atoms: _228  and  _229
REMARK   96  A    between atoms: _229  and  _230
REMARK   97  A    between atoms: _235  and  _237
REMARK   98  A    between atoms: _237  and  _238
REMARK   99  A    between atoms: _237  and  _240
REMARK  100  A    between atoms: _240  and  _241
REMARK  101  A    between atoms: _247  and  _249
REMARK  102  A    between atoms: _249  and  _250
REMARK  103  A    between atoms: _249  and  _252
REMARK  104  A    between atoms: _252  and  _253
REMARK  105  A    between atoms: _256  and  _258
REMARK  106  A    between atoms: _258  and  _259
REMARK  107  A    between atoms: _258  and  _261
REMARK  108  A    between atoms: _261  and  _262
REMARK  109  A    between atoms: _265  and  _267
REMARK  110  A    between atoms: _267  and  _268
REMARK  111  A    between atoms: _271  and  _273
REMARK  112  A    between atoms: _273  and  _274
REMARK  113  A    between atoms: _273  and  _276
REMARK  114  A    between atoms: _276  and  _277
REMARK  115  A    between atoms: _277  and  _278
REMARK  116  A    between atoms: _280  and  _282
REMARK  117  A    between atoms: _282  and  _283
REMARK  118  A    between atoms: _282  and  _285
REMARK  119  A    between atoms: _285  and  _286
REMARK  120  A    between atoms: _289  and  _291
REMARK  121  A    between atoms: _291  and  _292
REMARK  122  A    between atoms: _291  and  _294
REMARK  123  A    between atoms: _297  and  _299
REMARK  124  A    between atoms: _299  and  _300
REMARK  125  A    between atoms: _299  and  _302
REMARK  126  A    between atoms: _302  and  _303
REMARK  127  A    between atoms: _305  and  _307
REMARK  128  A    between atoms: _307  and  _308
REMARK  129  A    between atoms: _307  and  _310
REMARK  130  A    between atoms: _310  and  _311
REMARK  131  A    between atoms: _311  and  _312
REMARK  132  A    between atoms: _312  and  _313
REMARK  133  A    between atoms: _313  and  _314
REMARK  134  A    between atoms: _319  and  _320
REMARK  135  A    between atoms: _325  and  _327
REMARK  136  A    between atoms: _327  and  _328
REMARK  137  A    between atoms: _327  and  _330
REMARK  138  A    between atoms: _330  and  _331
REMARK  139  A    between atoms: _336  and  _337
REMARK  140  A    between atoms: _339  and  _341
REMARK  141  A    between atoms: _341  and  _342
REMARK  142  A    between atoms: _341  and  _344
REMARK  143  A    between atoms: _344  and  _345
REMARK  144  A    between atoms: _348  and  _350
REMARK  145  A    between atoms: _350  and  _351
REMARK  146  A    between atoms: _350  and  _353
REMARK  147  A    between atoms: _353  and  _354
REMARK  148  A    between atoms: _357  and  _359
REMARK  149  A    between atoms: _359  and  _360
REMARK  150  A    between atoms: _359  and  _362
REMARK  151  A    between atoms: _362  and  _363
REMARK  152  A    between atoms: _366  and  _368
REMARK  153  A    between atoms: _368  and  _369
REMARK  154  A    between atoms: _368  and  _371
REMARK  155  A    between atoms: _371  and  _372
REMARK  156  A    between atoms: _375  and  _377
REMARK  157  A    between atoms: _377  and  _378
REMARK  158  A    between atoms: _377  and  _380
REMARK  159  A    between atoms: _380  and  _381
REMARK  160  A    between atoms: _383  and  _385
REMARK  161  A    between atoms: _385  and  _386
REMARK  162  A    between atoms: _385  and  _388
REMARK  163  A    between atoms: _388  and  _389
REMARK  164  A    between atoms: _394  and  _395
REMARK  165  A    between atoms: _397  and  _399
REMARK  166  A    between atoms: _399  and  _400
REMARK  167  A    between atoms: _399  and  _402
REMARK  168  A    between atoms: _402  and  _403
REMARK  169  A    between atoms: _406  and  _408
REMARK  170  A    between atoms: _408  and  _409
REMARK  171  A    between atoms: _408  and  _411
REMARK  172  A    between atoms: _411  and  _412
REMARK  173  A    between atoms: _417  and  _419
REMARK  174  A    between atoms: _419  and  _420
REMARK  175  A    between atoms: _419  and  _422
REMARK  176  A    between atoms: _422  and  _423
REMARK  177  A    between atoms: _427  and  _428
REMARK  178  A    between atoms: _433  and  _435
REMARK  179  A    between atoms: _435  and  _436
REMARK  180  A    between atoms: _435  and  _438
REMARK  181  A    between atoms: _438  and  _439
REMARK  182  A    between atoms: _442  and  _444
REMARK  183  A    between atoms: _444  and  _445
REMARK  184  A    between atoms: _448  and  _450
REMARK  185  A    between atoms: _450  and  _451
REMARK  186  A    between atoms: _450  and  _453
REMARK  187  A    between atoms: _453  and  _454
REMARK  188  A    between atoms: _454  and  _455
REMARK  189  A    between atoms: _457  and  _459
REMARK  190  A    between atoms: _459  and  _460
REMARK  191  A    between atoms: _459  and  _462
REMARK  192  A    between atoms: _462  and  _463
REMARK  193  A    between atoms: _468  and  _470
REMARK  194  A    between atoms: _470  and  _471
REMARK  195  A    between atoms: _470  and  _473
REMARK  196  A    between atoms: _473  and  _474
REMARK  197  A    between atoms: _484  and  _486
REMARK  198  A    between atoms: _486  and  _487
REMARK  199  A    between atoms: _486  and  _489
REMARK  200  A    between atoms: _492  and  _494
REMARK  201  A    between atoms: _494  and  _495
REMARK  202  A    between atoms: _494  and  _497
REMARK  203  A    between atoms: _497  and  _498
REMARK  204  A    between atoms: _498  and  _499
REMARK  205  A    between atoms: _499  and  _500
REMARK  206  A    between atoms: _500  and  _501
REMARK  207  A    between atoms: _505  and  _507
REMARK  208  A    between atoms: _507  and  _508
REMARK  209  A    between atoms: _507  and  _510
REMARK  210  A    between atoms: _510  and  _511
REMARK  211  A    between atoms: _511  and  _512
REMARK  212  A    between atoms: _515  and  _517
REMARK  213  A    between atoms: _517  and  _518
REMARK  214  A    between atoms: _517  and  _520
REMARK  215  A    between atoms: _520  and  _521
REMARK  216  A    between atoms: _524  and  _526
REMARK  217  A    between atoms: _526  and  _527
REMARK  218  A    between atoms: _526  and  _529
REMARK  219  A    between atoms: _529  and  _530
REMARK  220  A    between atoms: _530  and  _531
REMARK  221  A    between atoms: _531  and  _532
REMARK  222  A    between atoms: _541  and  _543
REMARK  223  A    between atoms: _543  and  _544
REMARK  224  A    between atoms: _543  and  _546
REMARK  225  A    between atoms: _546  and  _547
REMARK  226  A    between atoms: _550  and  _552
REMARK  227  A    between atoms: _552  and  _553
REMARK  228  A    between atoms: _552  and  _555
REMARK  229  A    between atoms: _555  and  _556
REMARK  230  A    between atoms: _561  and  _563
REMARK  231  A    between atoms: _563  and  _564
REMARK  232  A    between atoms: _563  and  _566
REMARK  233  A    between atoms: _566  and  _567
REMARK  234  A    between atoms: _567  and  _568
REMARK  235  A    between atoms: _568  and  _569
REMARK  236  A    between atoms: _578  and  _580
REMARK  237  A    between atoms: _580  and  _581
REMARK  238  A    between atoms: _580  and  _583
REMARK  239  A    between atoms: _583  and  _584
REMARK  240  A    between atoms: _584  and  _585
REMARK  241  A    between atoms: _587  and  _589
REMARK  242  A    between atoms: _589  and  _590
REMARK  243  A    between atoms: _589  and  _592
REMARK  244  A    between atoms: _592  and  _593
REMARK  245  A    between atoms: _593  and  _594
REMARK  246  A    between atoms: _596  and  _598
REMARK  247  A    between atoms: _598  and  _599
REMARK  248  A    between atoms: _598  and  _601
REMARK  249  A    between atoms: _601  and  _602
REMARK  250  A    between atoms: _602  and  _603
REMARK  251  A    between atoms: _603  and  _604
REMARK  252  A    between atoms: _604  and  _605
REMARK  253  A    between atoms: _609  and  _611
REMARK  254  A    between atoms: _611  and  _612
REMARK  255  A    between atoms: _611  and  _614
REMARK  256  A    between atoms: _614  and  _615
REMARK                            x       y       z     vdW  Elec       q    Type
REMARK                         _______ _______ _______ _____ _____    ______ ____
ROOT
ATOM      1  CA  GLN A   6      53.179  10.611  22.773  0.00  0.00    +0.149 C 
ENDROOT
BRANCH   1   2
ATOM      2  C   GLN A   6      52.743  10.510  21.318  0.00  0.00    +0.241 C 
ATOM      3  N   PHE A   7      51.946   9.492  20.989  0.00  0.00    -0.297 N 
ATOM      4  H   PHE A   7      51.646   8.809  21.714  0.00  0.00    +0.150 HD
ATOM      5  O   GLN A   6      53.110  11.349  20.496  0.00  0.00    -0.273 OA
BRANCH   3   6
ATOM      6  CA  PHE A   7      51.497   9.340  19.611  0.00  0.00    +0.153 C 
BRANCH   6   7
ATOM      7  C   PHE A   7      50.495  10.465  19.306  0.00  0.00    +0.241 C 
ATOM      8  N   LEU A   8      49.553  10.685  20.215  0.00  0.00    -0.297 N 
ATOM      9  H   LEU A   8      49.480  10.071  21.051  0.00  0.00    +0.150 HD
ATOM     10  O   PHE A   7      50.587  11.138  18.277  0.00  0.00    -0.273 OA
BRANCH   8  11
ATOM     11  CA  LEU A   8      48.619  11.796  20.035  0.00  0.00    +0.149 C 
BRANCH  11  12
ATOM     12  C   LEU A   8      49.373  13.139  20.083  0.00  0.00    +0.241 C 
ATOM     13  N   THR A   9      50.316  13.289  21.009  0.00  0.00    -0.295 N 
ATOM     14  H   THR A   9      50.495  12.527  21.693  0.00  0.00    +0.150 HD
ATOM     15  O   LEU A   8      49.102  14.050  19.291  0.00  0.00    -0.273 OA
BRANCH  13  16
ATOM     16  CA  THR A   9      51.100  14.515  21.070  0.00  0.00    +0.176 C 
BRANCH  16  17
ATOM     17  C   THR A   9      51.754  14.828  19.716  0.00  0.00    +0.243 C 
ATOM     18  O   THR A   9      51.695  15.958  19.234  0.00  0.00    -0.273 OA
ATOM     19  N   ALA A  10      52.374  13.813  19.120  0.00  0.00    -0.298 N 
ATOM     20  H   ALA A  10      52.381  12.879  19.578  0.00  0.00    +0.150 HD
BRANCH  19  21
ATOM     21  CA  ALA A  10      53.041  13.986  17.842  0.00  0.00    +0.137 C 
ATOM     22  CB  ALA A  10      53.718  12.677  17.448  0.00  0.00    +0.030 C 
BRANCH  21  23
ATOM     23  C   ALA A  10      52.072  14.436  16.761  0.00  0.00    +0.227 C 
ATOM     24  O   ALA A  10      52.395  15.331  15.974  0.00  0.00    -0.286 OA
ENDBRANCH  21  23
ENDBRANCH  19  21
ENDBRANCH  16  17
BRANCH  16  25
ATOM     25  CB  THR A   9      52.188  14.396  22.156  0.00  0.00    +0.137 C 
ATOM     26  CG2 THR A   9      53.359  15.331  21.904  0.00  0.00    +0.034 C 
BRANCH  25  27
ATOM     27  OG1 THR A   9      51.586  14.705  23.416  0.00  0.00    -0.382 OA
ATOM     28  HG1 THR A   9      51.225  15.627  23.391  0.00  0.00    +0.210 HD
ENDBRANCH  25  27
ENDBRANCH  16  25
ENDBRANCH  13  16
ENDBRANCH  11  12
BRANCH  11  29
ATOM     29  CB  LEU A   8      47.542  11.748  21.125  0.00  0.00    +0.029 C 
BRANCH  29  30
ATOM     30  CG  LEU A   8      46.583  12.951  21.118  0.00  0.00    +0.002 C 
ATOM     31  CD2 LEU A   8      45.595  12.824  22.289  0.00  0.00    +0.000 C 
ATOM     32  CD1 LEU A   8      45.798  12.994  19.800  0.00  0.00    +0.000 C 
ENDBRANCH  29  30
ENDBRANCH  11  29
ENDBRANCH   8  11
ENDBRANCH   6   7
BRANCH   6  33
ATOM     33  CB  PHE A   7      50.880   7.969  19.414  0.00  0.00    +0.055 C 
BRANCH  33  34
ATOM     34  CG  PHE A   7      51.762   6.848  19.877  0.00  0.00    -0.020 A 
ATOM     35  CD2 PHE A   7      51.205   5.716  20.456  0.00  0.00    -0.004 A 
ATOM     36  CE2 PHE A   7      51.983   4.653  20.854  0.00  0.00    -0.000 A 
ATOM     37  CZ  PHE A   7      53.376   4.705  20.678  0.00  0.00    -0.000 A 
ATOM     38  CE1 PHE A   7      53.958   5.834  20.102  0.00  0.00    -0.000 A 
ATOM     39  CD1 PHE A   7      53.146   6.908  19.702  0.00  0.00    -0.004 A 
ENDBRANCH  33  34
ENDBRANCH   6  33
ENDBRANCH   3   6
ENDBRANCH   1   2
BRANCH   1  41
ATOM     40  C   SER A   5      51.057  10.380  23.891  0.00  0.00    +0.243 C 
ATOM     41  N   GLN A   6      52.309   9.949  23.732  0.00  0.00    -0.297 N 
ATOM     42  H   GLN A   6      52.661   9.145  24.290  0.00  0.00    +0.150 HD
ATOM     43  O   SER A   5      50.585  11.294  23.217  0.00  0.00    -0.273 OA
BRANCH  40  44
ATOM     44  CA  SER A   5      50.218   9.693  24.954  0.00  0.00    +0.178 C 
BRANCH  44  46
ATOM     45  C   SER A   4      50.728   7.391  24.502  0.00  0.00    +0.243 C 
ATOM     46  N   SER A   5      50.850   8.437  25.308  0.00  0.00    -0.295 N 
ATOM     47  H   SER A   5      51.396   8.357  26.189  0.00  0.00    +0.150 HD
ATOM     48  O   SER A   4      50.030   7.398  23.493  0.00  0.00    -0.273 OA
BRANCH  45  49
ATOM     49  CA  SER A   4      51.492   6.143  24.890  0.00  0.00    +0.178 C 
BRANCH  49  52
ATOM     50  C   VAL A   3      50.802   3.890  25.420  0.00  0.00    +0.241 C 
ATOM     51  O   VAL A   3      51.603   3.844  26.360  0.00  0.00    -0.273 OA
ATOM     52  N   SER A   4      50.702   4.951  24.632  0.00  0.00    -0.295 N 
ATOM     53  H   SER A   4      50.052   4.930  23.821  0.00  0.00    +0.150 HD
BRANCH  50  54
ATOM     54  CA  VAL A   3      49.910   2.687  25.112  0.00  0.00    +0.149 C 
BRANCH  54  57
ATOM     55  C   SER A   2      47.532   2.844  25.620  0.00  0.00    +0.243 C 
ATOM     56  O   SER A   2      47.704   2.378  26.743  0.00  0.00    -0.273 OA
ATOM     57  N   VAL A   3      48.535   3.047  24.770  0.00  0.00    -0.297 N 
ATOM     58  H   VAL A   3      48.337   3.471  23.841  0.00  0.00    +0.150 HD
BRANCH  55  59
ATOM     59  CA  SER A   2      46.128   3.211  25.160  0.00  0.00    +0.178 C 
BRANCH  59  62
ATOM     60  C   GLY A   1      46.131   5.425  24.135  0.00  0.00    +0.240 C 
ATOM     61  O   GLY A   1      46.500   5.969  25.180  0.00  0.00    -0.274 OA
ATOM     62  N   SER A   2      45.990   4.108  24.013  0.00  0.00    -0.295 N 
ATOM     63  H   SER A   2      45.776   3.706  23.078  0.00  0.00    +0.150 HD
BRANCH  60  64
ATOM     64  CA  GLY A   1      45.877   6.248  22.886  0.00  0.00    +0.169 C 
BRANCH  64  65
ATOM     65  N   GLY A   1      45.223   5.497  21.826  0.00  0.00    -0.236 NA
ATOM     66  H   GLY A   1      44.229   5.209  21.928  0.00  0.00    +0.142 HD
ENDBRANCH  64  65
ENDBRANCH  60  64
ENDBRANCH  59  62
BRANCH  59  67
ATOM     67  CB  SER A   2      45.321   1.921  24.906  0.00  0.00    +0.166 C 
BRANCH  67  68
ATOM     68  OG  SER A   2      45.911   1.102  23.916  0.00  0.00    -0.380 OA
ATOM     69  H   SER A   2      45.964   1.603  23.064  0.00  0.00    +0.211 HD
ENDBRANCH  67  68
ENDBRANCH  59  67
ENDBRANCH  55  59
ENDBRANCH  54  57
BRANCH  54  70
ATOM     70  CB  VAL A   3      50.544   1.856  23.977  0.00  0.00    +0.027 C 
ATOM     71  CG2 VAL A   3      52.023   1.637  24.257  0.00  0.00    +0.002 C 
ATOM     72  CG1 VAL A   3      49.860   0.518  23.877  0.00  0.00    +0.002 C 
ENDBRANCH  54  70
ENDBRANCH  50  54
ENDBRANCH  49  52
BRANCH  49  73
ATOM     73  CB  SER A   4      52.813   6.126  24.098  0.00  0.00    +0.166 C 
BRANCH  73  74
ATOM     74  OG  SER A   4      53.485   7.358  24.299  0.00  0.00    -0.380 OA
ATOM     75  H   SER A   4      53.674   7.476  25.264  0.00  0.00    +0.211 HD
ENDBRANCH  73  74
ENDBRANCH  49  73
ENDBRANCH  45  49
ENDBRANCH  44  46
BRANCH  44  76
ATOM     76  CB  SER A   5      50.128  10.624  26.168  0.00  0.00    +0.166 C 
BRANCH  76  77
ATOM     77  OG  SER A   5      51.427  11.037  26.607  0.00  0.00    -0.380 OA
ATOM     78  H   SER A   5      51.957  10.240  26.860  0.00  0.00    +0.211 HD
ENDBRANCH  76  77
ENDBRANCH  44  76
ENDBRANCH  40  44
ENDBRANCH   1  41
BRANCH   1  79
ATOM     79  CB  GLN A   6      54.600  10.080  22.920  0.00  0.00    +0.039 C 
BRANCH  79  80
ATOM     80  CG  GLN A   6      55.200  10.385  24.277  0.00  0.00    +0.087 C 
BRANCH  80  81
ATOM     81  CD  GLN A   6      56.699  10.145  24.314  0.00  0.00    +0.219 C 
ATOM     82  NE2 GLN A   6      57.288  10.296  25.491  0.00  0.00    -0.329 N 
ATOM     83 HE21 GLN A   6      56.723  10.552  26.326  0.00  0.00    +0.145 HD
ATOM     84 HE22 GLN A   6      58.315  10.158  25.580  0.00  0.00    +0.145 HD
ATOM     85  OE1 GLN A   6      57.318   9.845  23.305  0.00  0.00    -0.275 OA
ENDBRANCH  80  81
ENDBRANCH  79  80
ENDBRANCH   1  79
TORSDOF 36
REMARK  Name = ../refined-set-2016/1x8r/1x8r_pocket.pdb
REMARK  256 active torsions:
REMARK  status: ('A' for Active; 'I' for Inactive)
REMARK    1  A    between atoms: _1  and  _3
REMARK    2  A    between atoms: _3  and  _4
REMARK    3  A    between atoms: _3  and  _6
REMARK    4  A    between atoms: _6  and  _7
REMARK    5  A    between atoms: _9  and  _11
REMARK    6  A    between atoms: _11  and  _12
REMARK    7  A    between atoms: _11  and  _14
REMARK    8  A    between atoms: _14  and  _15
REMARK    9  A    between atoms: _15  and  _16
REMARK   10  A    between atoms: _16  and  _17
REMARK   11  A    between atoms: _17  and  _18
REMARK   12  A    between atoms: _22  and  _24
REMARK   13  A    between atoms: _24  and  _25
REMARK   14  A    between atoms: _24  and  _27
REMARK   15  A    between atoms: _27  and  _28
REMARK   16  A    between atoms: _30  and  _32
REMARK   17  A    between atoms: _32  and  _33
REMARK   18  A    between atoms: _32  and  _35
REMARK   19  A    between atoms: _38  and  _40
REMARK   20  A    between atoms: _40  and  _41
REMARK   21  A    between atoms: _40  and  _43
REMARK   22  A    between atoms: _43  and  _44
REMARK   23  A    between atoms: _46  and  _48
REMARK   24  A    between atoms: _48  and  _49
REMARK   25  A    between atoms: _48  and  _51
REMARK   26  A    between atoms: _51  and  _52
REMARK   27  A    between atoms: _57  and  _59
REMARK   28  A    between atoms: _59  and  _60
REMARK   29  A    between atoms: _59  and  _62
REMARK   30  A    between atoms: _62  and  _63
REMARK   31  A    between atoms: _63  and  _64
REMARK   32  A    between atoms: _64  and  _65
REMARK   33  A    between atoms: _74  and  _76
REMARK   34  A    between atoms: _76  and  _77
REMARK   35  A    between atoms: _76  and  _79
REMARK   36  A    between atoms: _79  and  _80
REMARK   37  A    between atoms: _83  and  _85
REMARK   38  A    between atoms: _85  and  _86
REMARK   39  A    between atoms: _85  and  _88
REMARK   40  A    between atoms: _88  and  _89
REMARK   41  A    between atoms: _94  and  _96
REMARK   42  A    between atoms: _96  and  _97
REMARK   43  A    between atoms: _100  and  _102
REMARK   44  A    between atoms: _102  and  _103
REMARK   45  A    between atoms: _105  and  _107
REMARK   46  A    between atoms: _107  and  _108
REMARK   47  A    between atoms: _107  and  _110
REMARK   48  A    between atoms: _110  and  _111
REMARK   49  A    between atoms: _114  and  _116
REMARK   50  A    between atoms: _116  and  _117
REMARK   51  A    between atoms: _120  and  _122
REMARK   52  A    between atoms: _122  and  _123
REMARK   53  A    between atoms: _122  and  _125
REMARK   54  A    between atoms: _125  and  _126
REMARK   55  A    between atoms: _126  and  _127
REMARK   56  A    between atoms: _129  and  _131
REMARK   57  A    between atoms: _131  and  _132
REMARK   58  A    between atoms: _131  and  _134
REMARK   59  A    between atoms: _134  and  _135
REMARK   60  A    between atoms: _135  and  _136
REMARK   61  A    between atoms: _136  and  _137
REMARK   62  A    between atoms: _147  and  _148
REMARK   63  A    between atoms: _153  and  _155
REMARK   64  A    between atoms: _155  and  _156
REMARK   65  A    between atoms: _155  and  _158
REMARK   66  A    between atoms: _158  and  _159
REMARK   67  A    between atoms: _159  and  _160
REMARK   68  A    between atoms: _162  and  _164
REMARK   69  A    between atoms: _164  and  _165
REMARK   70  A    between atoms: _164  and  _167
REMARK   71  A    between atoms: _167  and  _168
REMARK   72  A    between atoms: _168  and  _169
REMARK   73  A    between atoms: _169  and  _170
REMARK   74  A    between atoms: _180  and  _181
REMARK   75  A    between atoms: _186  and  _188
REMARK   76  A    between atoms: _188  and  _189
REMARK   77  A    between atoms: _191  and  _193
REMARK   78  A    between atoms: _193  and  _194
REMARK   79  A    between atoms: _193  and  _196
REMARK   80  A    between atoms: _196  and  _197
REMARK   81  A    between atoms: _199  and  _201
REMARK   82  A    between atoms: _201  and  _202
REMARK   83  A    between atoms: _201  and  _204
REMARK   84  A    between atoms: _207  and  _209
REMARK   85  A    between atoms: _209  and  _210
REMARK   86  A    between atoms: _209  and  _212
REMARK   87  A    between atoms: _212  and  _213
REMARK   88  A    between atoms: _215  and  _217
REMARK   89  A    between atoms: _217  and  _218
REMARK   90  A    between atoms: _217  and  _220
REMARK   91  A    between atoms: _220  and  _221
REMARK   92  A    between atoms: _223  and  _225
REMARK   93  A    between atoms: _225  and  _226
REMARK   94  A    between atoms: _225  and  _228
REMARK   95  A    between atoms: _228  and  _229
REMARK   96  A    between atoms: _229  and  _230
REMARK   97  A    between atoms: _235  and  _237
REMARK   98  A    between atoms: _237  and  _238
REMARK   99  A    between atoms: _237  and  _240
REMARK  100  A    between atoms: _240  and  _241
REMARK  101  A    between atoms: _247  and  _249
REMARK  102  A    between atoms: _249  and  _250
REMARK  103  A    between atoms: _249  and  _252
REMARK  104  A    between atoms: _252  and  _253
REMARK  105  A    between atoms: _256  and  _258
REMARK  106  A    between atoms: _258  and  _259
REMARK  107  A    between atoms: _258  and  _261
REMARK  108  A    between atoms: _261  and  _262
REMARK  109  A    between atoms: _265  and  _267
REMARK  110  A    between atoms: _267  and  _268
REMARK  111  A    between atoms: _271  and  _273
REMARK  112  A    between atoms: _273  and  _274
REMARK  113  A    between atoms: _273  and  _276
REMARK  114  A    between atoms: _276  and  _277
REMARK  115  A    between atoms: _277  and  _278
REMARK  116  A    between atoms: _280  and  _282
REMARK  117  A    between atoms: _282  and  _283
REMARK  118  A    between atoms: _282  and  _285
REMARK  119  A    between atoms: _285  and  _286
REMARK  120  A    between atoms: _289  and  _291
REMARK  121  A    between atoms: _291  and  _292
REMARK  122  A    between atoms: _291  and  _294
REMARK  123  A    between atoms: _297  and  _299
REMARK  124  A    between atoms: _299  and  _300
REMARK  125  A    between atoms: _299  and  _302
REMARK  126  A    between atoms: _302  and  _303
REMARK  127  A    between atoms: _305  and  _307
REMARK  128  A    between atoms: _307  and  _308
REMARK  129  A    between atoms: _307  and  _310
REMARK  130  A    between atoms: _310  and  _311
REMARK  131  A    between atoms: _311  and  _312
REMARK  132  A    between atoms: _312  and  _313
REMARK  133  A    between atoms: _313  and  _314
REMARK  134  A    between atoms: _319  and  _320
REMARK  135  A    between atoms: _325  and  _327
REMARK  136  A    between atoms: _327  and  _328
REMARK  137  A    between atoms: _327  and  _330
REMARK  138  A    between atoms: _330  and  _331
REMARK  139  A    between atoms: _336  and  _337
REMARK  140  A    between atoms: _339  and  _341
REMARK  141  A    between atoms: _341  and  _342
REMARK  142  A    between atoms: _341  and  _344
REMARK  143  A    between atoms: _344  and  _345
REMARK  144  A    between atoms: _348  and  _350
REMARK  145  A    between atoms: _350  and  _351
REMARK  146  A    between atoms: _350  and  _353
REMARK  147  A    between atoms: _353  and  _354
REMARK  148  A    between atoms: _357  and  _359
REMARK  149  A    between atoms: _359  and  _360
REMARK  150  A    between atoms: _359  and  _362
REMARK  151  A    between atoms: _362  and  _363
REMARK  152  A    between atoms: _366  and  _368
REMARK  153  A    between atoms: _368  and  _369
REMARK  154  A    between atoms: _368  and  _371
REMARK  155  A    between atoms: _371  and  _372
REMARK  156  A    between atoms: _375  and  _377
REMARK  157  A    between atoms: _377  and  _378
REMARK  158  A    between atoms: _377  and  _380
REMARK  159  A    between atoms: _380  and  _381
REMARK  160  A    between atoms: _383  and  _385
REMARK  161  A    between atoms: _385  and  _386
REMARK  162  A    between atoms: _385  and  _388
REMARK  163  A    between atoms: _388  and  _389
REMARK  164  A    between atoms: _394  and  _395
REMARK  165  A    between atoms: _397  and  _399
REMARK  166  A    between atoms: _399  and  _400
REMARK  167  A    between atoms: _399  and  _402
REMARK  168  A    between atoms: _402  and  _403
REMARK  169  A    between atoms: _406  and  _408
REMARK  170  A    between atoms: _408  and  _409
REMARK  171  A    between atoms: _408  and  _411
REMARK  172  A    between atoms: _411  and  _412
REMARK  173  A    between atoms: _417  and  _419
REMARK  174  A    between atoms: _419  and  _420
REMARK  175  A    between atoms: _419  and  _422
REMARK  176  A    between atoms: _422  and  _423
REMARK  177  A    between atoms: _427  and  _428
REMARK  178  A    between atoms: _433  and  _435
REMARK  179  A    between atoms: _435  and  _436
REMARK  180  A    between atoms: _435  and  _438
REMARK  181  A    between atoms: _438  and  _439
REMARK  182  A    between atoms: _442  and  _444
REMARK  183  A    between atoms: _444  and  _445
REMARK  184  A    between atoms: _448  and  _450
REMARK  185  A    between atoms: _450  and  _451
REMARK  186  A    between atoms: _450  and  _453
REMARK  187  A    between atoms: _453  and  _454
REMARK  188  A    between atoms: _454  and  _455
REMARK  189  A    between atoms: _457  and  _459
REMARK  190  A    between atoms: _459  and  _460
REMARK  191  A    between atoms: _459  and  _462
REMARK  192  A    between atoms: _462  and  _463
REMARK  193  A    between atoms: _468  and  _470
REMARK  194  A    between atoms: _470  and  _471
REMARK  195  A    between atoms: _470  and  _473
REMARK  196  A    between atoms: _473  and  _474
REMARK  197  A    between atoms: _484  and  _486
REMARK  198  A    between atoms: _486  and  _487
REMARK  199  A    between atoms: _486  and  _489
REMARK  200  A    between atoms: _492  and  _494
REMARK  201  A    between atoms: _494  and  _495
REMARK  202  A    between atoms: _494  and  _497
REMARK  203  A    between atoms: _497  and  _498
REMARK  204  A    between atoms: _498  and  _499
REMARK  205  A    between atoms: _499  and  _500
REMARK  206  A    between atoms: _500  and  _501
REMARK  207  A    between atoms: _505  and  _507
REMARK  208  A    between atoms: _507  and  _508
REMARK  209  A    between atoms: _507  and  _510
REMARK  210  A    between atoms: _510  and  _511
REMARK  211  A    between atoms: _511  and  _512
REMARK  212  A    between atoms: _515  and  _517
REMARK  213  A    between atoms: _517  and  _518
REMARK  214  A    between atoms: _517  and  _520
REMARK  215  A    between atoms: _520  and  _521
REMARK  216  A    between atoms: _524  and  _526
REMARK  217  A    between atoms: _526  and  _527
REMARK  218  A    between atoms: _526  and  _529
REMARK  219  A    between atoms: _529  and  _530
REMARK  220  A    between atoms: _530  and  _531
REMARK  221  A    between atoms: _531  and  _532
REMARK  222  A    between atoms: _541  and  _543
REMARK  223  A    between atoms: _543  and  _544
REMARK  224  A    between atoms: _543  and  _546
REMARK  225  A    between atoms: _546  and  _547
REMARK  226  A    between atoms: _550  and  _552
REMARK  227  A    between atoms: _552  and  _553
REMARK  228  A    between atoms: _552  and  _555
REMARK  229  A    between atoms: _555  and  _556
REMARK  230  A    between atoms: _561  and  _563
REMARK  231  A    between atoms: _563  and  _564
REMARK  232  A    between atoms: _563  and  _566
REMARK  233  A    between atoms: _566  and  _567
REMARK  234  A    between atoms: _567  and  _568
REMARK  235  A    between atoms: _568  and  _569
REMARK  236  A    between atoms: _578  and  _580
REMARK  237  A    between atoms: _580  and  _581
REMARK  238  A    between atoms: _580  and  _583
REMARK  239  A    between atoms: _583  and  _584
REMARK  240  A    between atoms: _584  and  _585
REMARK  241  A    between atoms: _587  and  _589
REMARK  242  A    between atoms: _589  and  _590
REMARK  243  A    between atoms: _589  and  _592
REMARK  244  A    between atoms: _592  and  _593
REMARK  245  A    between atoms: _593  and  _594
REMARK  246  A    between atoms: _596  and  _598
REMARK  247  A    between atoms: _598  and  _599
REMARK  248  A    between atoms: _598  and  _601
REMARK  249  A    between atoms: _601  and  _602
REMARK  250  A    between atoms: _602  and  _603
REMARK  251  A    between atoms: _603  and  _604
REMARK  252  A    between atoms: _604  and  _605
REMARK  253  A    between atoms: _609  and  _611
REMARK  254  A    between atoms: _611  and  _612
REMARK  255  A    between atoms: _611  and  _614
REMARK  256  A    between atoms: _614  and  _615
REMARK                            x       y       z     vdW  Elec       q    Type
REMARK                         _______ _______ _______ _____ _____    ______ ____
ROOT
ATOM      1  CA  MET A   1      51.849  19.188  16.859  0.00  0.00    +0.134 C 
ENDROOT
BRANCH   1   2
ATOM      2  N   MET A   1      50.892  18.168  17.260  0.00  0.00    -0.239 NA
ATOM      3  H   MET A   1      51.217  17.289  17.711  0.00  0.00    +0.142 HD
ENDBRANCH   1   2
BRANCH   1   4
ATOM      4  C   MET A   1      52.018  19.292  15.345  0.00  0.00    +0.224 C 
ATOM      5  O   MET A   1      52.312  20.354  14.817  0.00  0.00    -0.287 OA
ENDBRANCH   1   4
BRANCH   1   6
ATOM      6  CB  MET A   1      53.199  18.955  17.536  0.00  0.00    +0.037 C 
BRANCH   6   7
ATOM      7  CG  MET A   1      53.135  19.242  19.025  0.00  0.00    +0.059 C 
BRANCH   7   8
ATOM      8  SD  MET A   1      54.741  19.195  19.820  0.00  0.00    -0.139 S 
ATOM      9  CE  MET A   1      55.070  17.508  19.694  0.00  0.00    +0.069 C 
ENDBRANCH   7   8
ENDBRANCH   6   7
ENDBRANCH   1   6
TORSDOF 5
REMARK  Name = ../refined-set-2016/1x8r/1x8r_pocket.pdb
REMARK  256 active torsions:
REMARK  status: ('A' for Active; 'I' for Inactive)
REMARK    1  A    between atoms: _1  and  _3
REMARK    2  A    between atoms: _3  and  _4
REMARK    3  A    between atoms: _3  and  _6
REMARK    4  A    between atoms: _6  and  _7
REMARK    5  A    between atoms: _9  and  _11
REMARK    6  A    between atoms: _11  and  _12
REMARK    7  A    between atoms: _11  and  _14
REMARK    8  A    between atoms: _14  and  _15
REMARK    9  A    between atoms: _15  and  _16
REMARK   10  A    between atoms: _16  and  _17
REMARK   11  A    between atoms: _17  and  _18
REMARK   12  A    between atoms: _22  and  _24
REMARK   13  A    between atoms: _24  and  _25
REMARK   14  A    between atoms: _24  and  _27
REMARK   15  A    between atoms: _27  and  _28
REMARK   16  A    between atoms: _30  and  _32
REMARK   17  A    between atoms: _32  and  _33
REMARK   18  A    between atoms: _32  and  _35
REMARK   19  A    between atoms: _38  and  _40
REMARK   20  A    between atoms: _40  and  _41
REMARK   21  A    between atoms: _40  and  _43
REMARK   22  A    between atoms: _43  and  _44
REMARK   23  A    between atoms: _46  and  _48
REMARK   24  A    between atoms: _48  and  _49
REMARK   25  A    between atoms: _48  and  _51
REMARK   26  A    between atoms: _51  and  _52
REMARK   27  A    between atoms: _57  and  _59
REMARK   28  A    between atoms: _59  and  _60
REMARK   29  A    between atoms: _59  and  _62
REMARK   30  A    between atoms: _62  and  _63
REMARK   31  A    between atoms: _63  and  _64
REMARK   32  A    between atoms: _64  and  _65
REMARK   33  A    between atoms: _74  and  _76
REMARK   34  A    between atoms: _76  and  _77
REMARK   35  A    between atoms: _76  and  _79
REMARK   36  A    between atoms: _79  and  _80
REMARK   37  A    between atoms: _83  and  _85
REMARK   38  A    between atoms: _85  and  _86
REMARK   39  A    between atoms: _85  and  _88
REMARK   40  A    between atoms: _88  and  _89
REMARK   41  A    between atoms: _94  and  _96
REMARK   42  A    between atoms: _96  and  _97
REMARK   43  A    between atoms: _100  and  _102
REMARK   44  A    between atoms: _102  and  _103
REMARK   45  A    between atoms: _105  and  _107
REMARK   46  A    between atoms: _107  and  _108
REMARK   47  A    between atoms: _107  and  _110
REMARK   48  A    between atoms: _110  and  _111
REMARK   49  A    between atoms: _114  and  _116
REMARK   50  A    between atoms: _116  and  _117
REMARK   51  A    between atoms: _120  and  _122
REMARK   52  A    between atoms: _122  and  _123
REMARK   53  A    between atoms: _122  and  _125
REMARK   54  A    between atoms: _125  and  _126
REMARK   55  A    between atoms: _126  and  _127
REMARK   56  A    between atoms: _129  and  _131
REMARK   57  A    between atoms: _131  and  _132
REMARK   58  A    between atoms: _131  and  _134
REMARK   59  A    between atoms: _134  and  _135
REMARK   60  A    between atoms: _135  and  _136
REMARK   61  A    between atoms: _136  and  _137
REMARK   62  A    between atoms: _147  and  _148
REMARK   63  A    between atoms: _153  and  _155
REMARK   64  A    between atoms: _155  and  _156
REMARK   65  A    between atoms: _155  and  _158
REMARK   66  A    between atoms: _158  and  _159
REMARK   67  A    between atoms: _159  and  _160
REMARK   68  A    between atoms: _162  and  _164
REMARK   69  A    between atoms: _164  and  _165
REMARK   70  A    between atoms: _164  and  _167
REMARK   71  A    between atoms: _167  and  _168
REMARK   72  A    between atoms: _168  and  _169
REMARK   73  A    between atoms: _169  and  _170
REMARK   74  A    between atoms: _180  and  _181
REMARK   75  A    between atoms: _186  and  _188
REMARK   76  A    between atoms: _188  and  _189
REMARK   77  A    between atoms: _191  and  _193
REMARK   78  A    between atoms: _193  and  _194
REMARK   79  A    between atoms: _193  and  _196
REMARK   80  A    between atoms: _196  and  _197
REMARK   81  A    between atoms: _199  and  _201
REMARK   82  A    between atoms: _201  and  _202
REMARK   83  A    between atoms: _201  and  _204
REMARK   84  A    between atoms: _207  and  _209
REMARK   85  A    between atoms: _209  and  _210
REMARK   86  A    between atoms: _209  and  _212
REMARK   87  A    between atoms: _212  and  _213
REMARK   88  A    between atoms: _215  and  _217
REMARK   89  A    between atoms: _217  and  _218
REMARK   90  A    between atoms: _217  and  _220
REMARK   91  A    between atoms: _220  and  _221
REMARK   92  A    between atoms: _223  and  _225
REMARK   93  A    between atoms: _225  and  _226
REMARK   94  A    between atoms: _225  and  _228
REMARK   95  A    between atoms: _228  and  _229
REMARK   96  A    between atoms: _229  and  _230
REMARK   97  A    between atoms: _235  and  _237
REMARK   98  A    between atoms: _237  and  _238
REMARK   99  A    between atoms: _237  and  _240
REMARK  100  A    between atoms: _240  and  _241
REMARK  101  A    between atoms: _247  and  _249
REMARK  102  A    between atoms: _249  and  _250
REMARK  103  A    between atoms: _249  and  _252
REMARK  104  A    between atoms: _252  and  _253
REMARK  105  A    between atoms: _256  and  _258
REMARK  106  A    between atoms: _258  and  _259
REMARK  107  A    between atoms: _258  and  _261
REMARK  108  A    between atoms: _261  and  _262
REMARK  109  A    between atoms: _265  and  _267
REMARK  110  A    between atoms: _267  and  _268
REMARK  111  A    between atoms: _271  and  _273
REMARK  112  A    between atoms: _273  and  _274
REMARK  113  A    between atoms: _273  and  _276
REMARK  114  A    between atoms: _276  and  _277
REMARK  115  A    between atoms: _277  and  _278
REMARK  116  A    between atoms: _280  and  _282
REMARK  117  A    between atoms: _282  and  _283
REMARK  118  A    between atoms: _282  and  _285
REMARK  119  A    between atoms: _285  and  _286
REMARK  120  A    between atoms: _289  and  _291
REMARK  121  A    between atoms: _291  and  _292
REMARK  122  A    between atoms: _291  and  _294
REMARK  123  A    between atoms: _297  and  _299
REMARK  124  A    between atoms: _299  and  _300
REMARK  125  A    between atoms: _299  and  _302
REMARK  126  A    between atoms: _302  and  _303
REMARK  127  A    between atoms: _305  and  _307
REMARK  128  A    between atoms: _307  and  _308
REMARK  129  A    between atoms: _307  and  _310
REMARK  130  A    between atoms: _310  and  _311
REMARK  131  A    between atoms: _311  and  _312
REMARK  132  A    between atoms: _312  and  _313
REMARK  133  A    between atoms: _313  and  _314
REMARK  134  A    between atoms: _319  and  _320
REMARK  135  A    between atoms: _325  and  _327
REMARK  136  A    between atoms: _327  and  _328
REMARK  137  A    between atoms: _327  and  _330
REMARK  138  A    between atoms: _330  and  _331
REMARK  139  A    between atoms: _336  and  _337
REMARK  140  A    between atoms: _339  and  _341
REMARK  141  A    between atoms: _341  and  _342
REMARK  142  A    between atoms: _341  and  _344
REMARK  143  A    between atoms: _344  and  _345
REMARK  144  A    between atoms: _348  and  _350
REMARK  145  A    between atoms: _350  and  _351
REMARK  146  A    between atoms: _350  and  _353
REMARK  147  A    between atoms: _353  and  _354
REMARK  148  A    between atoms: _357  and  _359
REMARK  149  A    between atoms: _359  and  _360
REMARK  150  A    between atoms: _359  and  _362
REMARK  151  A    between atoms: _362  and  _363
REMARK  152  A    between atoms: _366  and  _368
REMARK  153  A    between atoms: _368  and  _369
REMARK  154  A    between atoms: _368  and  _371
REMARK  155  A    between atoms: _371  and  _372
REMARK  156  A    between atoms: _375  and  _377
REMARK  157  A    between atoms: _377  and  _378
REMARK  158  A    between atoms: _377  and  _380
REMARK  159  A    between atoms: _380  and  _381
REMARK  160  A    between atoms: _383  and  _385
REMARK  161  A    between atoms: _385  and  _386
REMARK  162  A    between atoms: _385  and  _388
REMARK  163  A    between atoms: _388  and  _389
REMARK  164  A    between atoms: _394  and  _395
REMARK  165  A    between atoms: _397  and  _399
REMARK  166  A    between atoms: _399  and  _400
REMARK  167  A    between atoms: _399  and  _402
REMARK  168  A    between atoms: _402  and  _403
REMARK  169  A    between atoms: _406  and  _408
REMARK  170  A    between atoms: _408  and  _409
REMARK  171  A    between atoms: _408  and  _411
REMARK  172  A    between atoms: _411  and  _412
REMARK  173  A    between atoms: _417  and  _419
REMARK  174  A    between atoms: _419  and  _420
REMARK  175  A    between atoms: _419  and  _422
REMARK  176  A    between atoms: _422  and  _423
REMARK  177  A    between atoms: _427  and  _428
REMARK  178  A    between atoms: _433  and  _435
REMARK  179  A    between atoms: _435  and  _436
REMARK  180  A    between atoms: _435  and  _438
REMARK  181  A    between atoms: _438  and  _439
REMARK  182  A    between atoms: _442  and  _444
REMARK  183  A    between atoms: _444  and  _445
REMARK  184  A    between atoms: _448  and  _450
REMARK  185  A    between atoms: _450  and  _451
REMARK  186  A    between atoms: _450  and  _453
REMARK  187  A    between atoms: _453  and  _454
REMARK  188  A    between atoms: _454  and  _455
REMARK  189  A    between atoms: _457  and  _459
REMARK  190  A    between atoms: _459  and  _460
REMARK  191  A    between atoms: _459  and  _462
REMARK  192  A    between atoms: _462  and  _463
REMARK  193  A    between atoms: _468  and  _470
REMARK  194  A    between atoms: _470  and  _471
REMARK  195  A    between atoms: _470  and  _473
REMARK  196  A    between atoms: _473  and  _474
REMARK  197  A    between atoms: _484  and  _486
REMARK  198  A    between atoms: _486  and  _487
REMARK  199  A    between atoms: _486  and  _489
REMARK  200  A    between atoms: _492  and  _494
REMARK  201  A    between atoms: _494  and  _495
REMARK  202  A    between atoms: _494  and  _497
REMARK  203  A    between atoms: _497  and  _498
REMARK  204  A    between atoms: _498  and  _499
REMARK  205  A    between atoms: _499  and  _500
REMARK  206  A    between atoms: _500  and  _501
REMARK  207  A    between atoms: _505  and  _507
REMARK  208  A    between atoms: _507  and  _508
REMARK  209  A    between atoms: _507  and  _510
REMARK  210  A    between atoms: _510  and  _511
REMARK  211  A    between atoms: _511  and  _512
REMARK  212  A    between atoms: _515  and  _517
REMARK  213  A    between atoms: _517  and  _518
REMARK  214  A    between atoms: _517  and  _520
REMARK  215  A    between atoms: _520  and  _521
REMARK  216  A    between atoms: _524  and  _526
REMARK  217  A    between atoms: _526  and  _527
REMARK  218  A    between atoms: _526  and  _529
REMARK  219  A    between atoms: _529  and  _530
REMARK  220  A    between atoms: _530  and  _531
REMARK  221  A    between atoms: _531  and  _532
REMARK  222  A    between atoms: _541  and  _543
REMARK  223  A    between atoms: _543  and  _544
REMARK  224  A    between atoms: _543  and  _546
REMARK  225  A    between atoms: _546  and  _547
REMARK  226  A    between atoms: _550  and  _552
REMARK  227  A    between atoms: _552  and  _553
REMARK  228  A    between atoms: _552  and  _555
REMARK  229  A    between atoms: _555  and  _556
REMARK  230  A    between atoms: _561  and  _563
REMARK  231  A    between atoms: _563  and  _564
REMARK  232  A    between atoms: _563  and  _566
REMARK  233  A    between atoms: _566  and  _567
REMARK  234  A    between atoms: _567  and  _568
REMARK  235  A    between atoms: _568  and  _569
REMARK  236  A    between atoms: _578  and  _580
REMARK  237  A    between atoms: _580  and  _581
REMARK  238  A    between atoms: _580  and  _583
REMARK  239  A    between atoms: _583  and  _584
REMARK  240  A    between atoms: _584  and  _585
REMARK  241  A    between atoms: _587  and  _589
REMARK  242  A    between atoms: _589  and  _590
REMARK  243  A    between atoms: _589  and  _592
REMARK  244  A    between atoms: _592  and  _593
REMARK  245  A    between atoms: _593  and  _594
REMARK  246  A    between atoms: _596  and  _598
REMARK  247  A    between atoms: _598  and  _599
REMARK  248  A    between atoms: _598  and  _601
REMARK  249  A    between atoms: _601  and  _602
REMARK  250  A    between atoms: _602  and  _603
REMARK  251  A    between atoms: _603  and  _604
REMARK  252  A    between atoms: _604  and  _605
REMARK  253  A    between atoms: _609  and  _611
REMARK  254  A    between atoms: _611  and  _612
REMARK  255  A    between atoms: _611  and  _614
REMARK  256  A    between atoms: _614  and  _615
REMARK                            x       y       z     vdW  Elec       q    Type
REMARK                         _______ _______ _______ _____ _____    ______ ____
ROOT
ATOM      1  CA  LYS A   4      46.573  12.353  29.747  0.00  0.00    +0.149 C 
ENDROOT
BRANCH   1   2
ATOM      2  C   LYS A   4      47.187  13.721  30.021  0.00  0.00    +0.244 C 
ATOM      3  N   PRO A   5      47.814  13.911  31.189  0.00  0.00    -0.272 N 
ATOM      4  CD  PRO A   5      47.821  13.085  32.412  0.00  0.00    +0.094 C 
ATOM      5  CG  PRO A   5      48.046  14.136  33.496  0.00  0.00    +0.024 C 
ATOM      6  CB  PRO A   5      48.946  15.124  32.860  0.00  0.00    +0.031 C 
ATOM      7  CA  PRO A   5      48.386  15.243  31.443  0.00  0.00    +0.152 C 
ATOM      8  O   LYS A   4      47.138  14.603  29.176  0.00  0.00    -0.273 OA
BRANCH   7   9
ATOM      9  C   PRO A   5      49.431  15.699  30.430  0.00  0.00    +0.241 C 
ATOM     10  O   PRO A   5      49.618  16.895  30.231  0.00  0.00    -0.273 OA
ATOM     11  N   TYR A   6      50.105  14.751  29.786  0.00  0.00    -0.297 N 
ATOM     12  H   TYR A   6      49.922  13.746  29.981  0.00  0.00    +0.150 HD
BRANCH  11  13
ATOM     13  CA  TYR A   6      51.100  15.143  28.806  0.00  0.00    +0.153 C 
BRANCH  13  14
ATOM     14  C   TYR A   6      50.479  15.764  27.570  0.00  0.00    +0.241 C 
ATOM     15  N   ILE A   7      49.210  15.449  27.315  0.00  0.00    -0.298 N 
ATOM     16  H   ILE A   7      48.707  14.785  27.938  0.00  0.00    +0.150 HD
ATOM     17  O   TYR A   6      51.127  16.561  26.882  0.00  0.00    -0.273 OA
BRANCH  15  18
ATOM     18  CA  ILE A   7      48.524  16.028  26.171  0.00  0.00    +0.137 C 
BRANCH  18  19
ATOM     19  CB  ILE A   7      47.163  15.333  25.927  0.00  0.00    +0.026 C 
ATOM     20  CG2 ILE A   7      46.378  16.061  24.821  0.00  0.00    +0.002 C 
BRANCH  19  21
ATOM     21  CG1 ILE A   7      47.399  13.863  25.588  0.00  0.00    +0.002 C 
ATOM     22  CD1 ILE A   7      48.363  13.607  24.411  0.00  0.00    +0.000 C 
ENDBRANCH  19  21
ENDBRANCH  18  19
BRANCH  18  23
ATOM     23  C   ILE A   7      48.286  17.500  26.493  0.00  0.00    +0.227 C 
ATOM     24  O   ILE A   7      48.388  18.359  25.620  0.00  0.00    -0.286 OA
ENDBRANCH  18  23
ENDBRANCH  15  18
ENDBRANCH  13  14
BRANCH  13  25
ATOM     25  CB  TYR A   6      52.012  13.953  28.440  0.00  0.00    +0.055 C 
BRANCH  25  26
ATOM     26  CG  TYR A   6      52.909  13.573  29.589  0.00  0.00    -0.020 A 
ATOM     27  CD2 TYR A   6      52.539  12.576  30.493  0.00  0.00    -0.001 A 
ATOM     28  CE2 TYR A   6      53.370  12.206  31.543  0.00  0.00    +0.036 A 
ATOM     29  CZ  TYR A   6      54.598  12.836  31.695  0.00  0.00    +0.134 A 
ATOM     30  CE1 TYR A   6      54.981  13.840  30.807  0.00  0.00    +0.036 A 
ATOM     31  CD1 TYR A   6      54.139  14.206  29.766  0.00  0.00    -0.001 A 
BRANCH  29  32
ATOM     32  OH  TYR A   6      55.465  12.420  32.699  0.00  0.00    -0.506 OA
ATOM     33  HH  TYR A   6      56.297  12.072  32.291  0.00  0.00    +0.292 HD
ENDBRANCH  29  32
ENDBRANCH  25  26
ENDBRANCH  13  25
ENDBRANCH  11  13
ENDBRANCH   7   9
ENDBRANCH   1   2
BRANCH   1  35
ATOM     34  C   SER A   3      48.586  11.011  29.963  0.00  0.00    +0.243 C 
ATOM     35  N   LYS A   4      47.298  11.192  30.229  0.00  0.00    -0.297 N 
ATOM     36  H   LYS A   4      46.795  10.482  30.799  0.00  0.00    +0.150 HD
ATOM     37  O   SER A   3      49.270  11.853  29.383  0.00  0.00    -0.273 OA
BRANCH  34  38
ATOM     38  CA  SER A   3      49.198   9.710  30.481  0.00  0.00    +0.178 C 
BRANCH  38  40
ATOM     39  C   VAL A   2      47.737   8.300  29.101  0.00  0.00    +0.241 C 
ATOM     40  N   SER A   3      48.313   8.554  30.275  0.00  0.00    -0.295 N 
ATOM     41  H   SER A   3      48.130   7.913  31.073  0.00  0.00    +0.150 HD
ATOM     42  O   VAL A   2      47.871   9.026  28.105  0.00  0.00    -0.273 OA
BRANCH  39  43
ATOM     43  CA  VAL A   2      46.869   7.050  29.057  0.00  0.00    +0.148 C 
BRANCH  43  46
ATOM     44  C   LEU A   1      44.795   7.580  27.952  0.00  0.00    +0.238 C 
ATOM     45  O   LEU A   1      44.320   8.005  29.007  0.00  0.00    -0.274 OA
ATOM     46  N   VAL A   2      46.019   7.078  27.875  0.00  0.00    -0.297 N 
ATOM     47  H   VAL A   2      46.372   6.704  26.971  0.00  0.00    +0.150 HD
BRANCH  44  48
ATOM     48  CA  LEU A   1      43.983   7.570  26.669  0.00  0.00    +0.145 C 
BRANCH  48  49
ATOM     49  N   LEU A   1      42.830   6.703  26.881  0.00  0.00    -0.238 NA
ATOM     50  H   LEU A   1      42.234   6.838  27.722  0.00  0.00    +0.142 HD
ENDBRANCH  48  49
BRANCH  48  51
ATOM     51  CB  LEU A   1      43.550   8.986  26.303  0.00  0.00    +0.026 C 
BRANCH  51  52
ATOM     52  CG  LEU A   1      44.668  10.026  26.176  0.00  0.00    +0.002 C 
ATOM     53  CD2 LEU A   1      44.057  11.372  25.843  0.00  0.00    +0.000 C 
ATOM     54  CD1 LEU A   1      45.676   9.609  25.099  0.00  0.00    +0.000 C 
ENDBRANCH  51  52
ENDBRANCH  48  51
ENDBRANCH  44  48
ENDBRANCH  43  46
BRANCH  43  55
ATOM     55  CB  VAL A   2      47.809   5.810  29.070  0.00  0.00    +0.027 C 
ATOM     56  CG2 VAL A   2      46.995   4.526  29.164  0.00  0.00    +0.002 C 
ATOM     57  CG1 VAL A   2      48.703   5.824  27.822  0.00  0.00    +0.002 C 
ENDBRANCH  43  55
ENDBRANCH  39  43
ENDBRANCH  38  40
BRANCH  38  58
ATOM     58  CB  SER A   3      50.549   9.461  29.791  0.00  0.00    +0.166 C 
BRANCH  58  59
ATOM     59  OG  SER A   3      51.167   8.294  30.315  0.00  0.00    -0.380 OA
ATOM     60  H   SER A   3      52.034   8.149  29.860  0.00  0.00    +0.211 HD
ENDBRANCH  58  59
ENDBRANCH  38  58
ENDBRANCH  34  38
ENDBRANCH   1  35
BRANCH   1  61
ATOM     61  CB  LYS A   4      45.145  12.318  30.300  0.00  0.00    +0.029 C 
BRANCH  61  62
ATOM     62  CG  LYS A   4      44.382  11.076  29.900  0.00  0.00    +0.000 C 
BRANCH  62  63
ATOM     63  CD  LYS A   4      42.939  11.135  30.368  0.00  0.00    -0.024 C 
BRANCH  63  64
ATOM     64  CE  LYS A   4      42.186   9.876  29.968  0.00  0.00    -0.086 C 
BRANCH  64  65
ATOM     65  NZ  LYS A   4      40.749   9.957  30.340  0.00  0.00    +0.380 N 
ATOM     66  HZ1 LYS A   4      40.665  10.078  31.370  0.00  0.00    -0.089 HD
ATOM     67  HZ2 LYS A   4      40.268   9.081  30.052  0.00  0.00    -0.089 HD
ATOM     68  HZ3 LYS A   4      40.313  10.769  29.858  0.00  0.00    -0.089 HD
ENDBRANCH  64  65
ENDBRANCH  63  64
ENDBRANCH  62  63
ENDBRANCH  61  62
ENDBRANCH   1  61
TORSDOF 28
REMARK  Name = ../refined-set-2016/1x8r/1x8r_pocket.pdb
REMARK  256 active torsions:
REMARK  status: ('A' for Active; 'I' for Inactive)
REMARK    1  A    between atoms: _1  and  _3
REMARK    2  A    between atoms: _3  and  _4
REMARK    3  A    between atoms: _3  and  _6
REMARK    4  A    between atoms: _6  and  _7
REMARK    5  A    between atoms: _9  and  _11
REMARK    6  A    between atoms: _11  and  _12
REMARK    7  A    between atoms: _11  and  _14
REMARK    8  A    between atoms: _14  and  _15
REMARK    9  A    between atoms: _15  and  _16
REMARK   10  A    between atoms: _16  and  _17
REMARK   11  A    between atoms: _17  and  _18
REMARK   12  A    between atoms: _22  and  _24
REMARK   13  A    between atoms: _24  and  _25
REMARK   14  A    between atoms: _24  and  _27
REMARK   15  A    between atoms: _27  and  _28
REMARK   16  A    between atoms: _30  and  _32
REMARK   17  A    between atoms: _32  and  _33
REMARK   18  A    between atoms: _32  and  _35
REMARK   19  A    between atoms: _38  and  _40
REMARK   20  A    between atoms: _40  and  _41
REMARK   21  A    between atoms: _40  and  _43
REMARK   22  A    between atoms: _43  and  _44
REMARK   23  A    between atoms: _46  and  _48
REMARK   24  A    between atoms: _48  and  _49
REMARK   25  A    between atoms: _48  and  _51
REMARK   26  A    between atoms: _51  and  _52
REMARK   27  A    between atoms: _57  and  _59
REMARK   28  A    between atoms: _59  and  _60
REMARK   29  A    between atoms: _59  and  _62
REMARK   30  A    between atoms: _62  and  _63
REMARK   31  A    between atoms: _63  and  _64
REMARK   32  A    between atoms: _64  and  _65
REMARK   33  A    between atoms: _74  and  _76
REMARK   34  A    between atoms: _76  and  _77
REMARK   35  A    between atoms: _76  and  _79
REMARK   36  A    between atoms: _79  and  _80
REMARK   37  A    between atoms: _83  and  _85
REMARK   38  A    between atoms: _85  and  _86
REMARK   39  A    between atoms: _85  and  _88
REMARK   40  A    between atoms: _88  and  _89
REMARK   41  A    between atoms: _94  and  _96
REMARK   42  A    between atoms: _96  and  _97
REMARK   43  A    between atoms: _100  and  _102
REMARK   44  A    between atoms: _102  and  _103
REMARK   45  A    between atoms: _105  and  _107
REMARK   46  A    between atoms: _107  and  _108
REMARK   47  A    between atoms: _107  and  _110
REMARK   48  A    between atoms: _110  and  _111
REMARK   49  A    between atoms: _114  and  _116
REMARK   50  A    between atoms: _116  and  _117
REMARK   51  A    between atoms: _120  and  _122
REMARK   52  A    between atoms: _122  and  _123
REMARK   53  A    between atoms: _122  and  _125
REMARK   54  A    between atoms: _125  and  _126
REMARK   55  A    between atoms: _126  and  _127
REMARK   56  A    between atoms: _129  and  _131
REMARK   57  A    between atoms: _131  and  _132
REMARK   58  A    between atoms: _131  and  _134
REMARK   59  A    between atoms: _134  and  _135
REMARK   60  A    between atoms: _135  and  _136
REMARK   61  A    between atoms: _136  and  _137
REMARK   62  A    between atoms: _147  and  _148
REMARK   63  A    between atoms: _153  and  _155
REMARK   64  A    between atoms: _155  and  _156
REMARK   65  A    between atoms: _155  and  _158
REMARK   66  A    between atoms: _158  and  _159
REMARK   67  A    between atoms: _159  and  _160
REMARK   68  A    between atoms: _162  and  _164
REMARK   69  A    between atoms: _164  and  _165
REMARK   70  A    between atoms: _164  and  _167
REMARK   71  A    between atoms: _167  and  _168
REMARK   72  A    between atoms: _168  and  _169
REMARK   73  A    between atoms: _169  and  _170
REMARK   74  A    between atoms: _180  and  _181
REMARK   75  A    between atoms: _186  and  _188
REMARK   76  A    between atoms: _188  and  _189
REMARK   77  A    between atoms: _191  and  _193
REMARK   78  A    between atoms: _193  and  _194
REMARK   79  A    between atoms: _193  and  _196
REMARK   80  A    between atoms: _196  and  _197
REMARK   81  A    between atoms: _199  and  _201
REMARK   82  A    between atoms: _201  and  _202
REMARK   83  A    between atoms: _201  and  _204
REMARK   84  A    between atoms: _207  and  _209
REMARK   85  A    between atoms: _209  and  _210
REMARK   86  A    between atoms: _209  and  _212
REMARK   87  A    between atoms: _212  and  _213
REMARK   88  A    between atoms: _215  and  _217
REMARK   89  A    between atoms: _217  and  _218
REMARK   90  A    between atoms: _217  and  _220
REMARK   91  A    between atoms: _220  and  _221
REMARK   92  A    between atoms: _223  and  _225
REMARK   93  A    between atoms: _225  and  _226
REMARK   94  A    between atoms: _225  and  _228
REMARK   95  A    between atoms: _228  and  _229
REMARK   96  A    between atoms: _229  and  _230
REMARK   97  A    between atoms: _235  and  _237
REMARK   98  A    between atoms: _237  and  _238
REMARK   99  A    between atoms: _237  and  _240
REMARK  100  A    between atoms: _240  and  _241
REMARK  101  A    between atoms: _247  and  _249
REMARK  102  A    between atoms: _249  and  _250
REMARK  103  A    between atoms: _249  and  _252
REMARK  104  A    between atoms: _252  and  _253
REMARK  105  A    between atoms: _256  and  _258
REMARK  106  A    between atoms: _258  and  _259
REMARK  107  A    between atoms: _258  and  _261
REMARK  108  A    between atoms: _261  and  _262
REMARK  109  A    between atoms: _265  and  _267
REMARK  110  A    between atoms: _267  and  _268
REMARK  111  A    between atoms: _271  and  _273
REMARK  112  A    between atoms: _273  and  _274
REMARK  113  A    between atoms: _273  and  _276
REMARK  114  A    between atoms: _276  and  _277
REMARK  115  A    between atoms: _277  and  _278
REMARK  116  A    between atoms: _280  and  _282
REMARK  117  A    between atoms: _282  and  _283
REMARK  118  A    between atoms: _282  and  _285
REMARK  119  A    between atoms: _285  and  _286
REMARK  120  A    between atoms: _289  and  _291
REMARK  121  A    between atoms: _291  and  _292
REMARK  122  A    between atoms: _291  and  _294
REMARK  123  A    between atoms: _297  and  _299
REMARK  124  A    between atoms: _299  and  _300
REMARK  125  A    between atoms: _299  and  _302
REMARK  126  A    between atoms: _302  and  _303
REMARK  127  A    between atoms: _305  and  _307
REMARK  128  A    between atoms: _307  and  _308
REMARK  129  A    between atoms: _307  and  _310
REMARK  130  A    between atoms: _310  and  _311
REMARK  131  A    between atoms: _311  and  _312
REMARK  132  A    between atoms: _312  and  _313
REMARK  133  A    between atoms: _313  and  _314
REMARK  134  A    between atoms: _319  and  _320
REMARK  135  A    between atoms: _325  and  _327
REMARK  136  A    between atoms: _327  and  _328
REMARK  137  A    between atoms: _327  and  _330
REMARK  138  A    between atoms: _330  and  _331
REMARK  139  A    between atoms: _336  and  _337
REMARK  140  A    between atoms: _339  and  _341
REMARK  141  A    between atoms: _341  and  _342
REMARK  142  A    between atoms: _341  and  _344
REMARK  143  A    between atoms: _344  and  _345
REMARK  144  A    between atoms: _348  and  _350
REMARK  145  A    between atoms: _350  and  _351
REMARK  146  A    between atoms: _350  and  _353
REMARK  147  A    between atoms: _353  and  _354
REMARK  148  A    between atoms: _357  and  _359
REMARK  149  A    between atoms: _359  and  _360
REMARK  150  A    between atoms: _359  and  _362
REMARK  151  A    between atoms: _362  and  _363
REMARK  152  A    between atoms: _366  and  _368
REMARK  153  A    between atoms: _368  and  _369
REMARK  154  A    between atoms: _368  and  _371
REMARK  155  A    between atoms: _371  and  _372
REMARK  156  A    between atoms: _375  and  _377
REMARK  157  A    between atoms: _377  and  _378
REMARK  158  A    between atoms: _377  and  _380
REMARK  159  A    between atoms: _380  and  _381
REMARK  160  A    between atoms: _383  and  _385
REMARK  161  A    between atoms: _385  and  _386
REMARK  162  A    between atoms: _385  and  _388
REMARK  163  A    between atoms: _388  and  _389
REMARK  164  A    between atoms: _394  and  _395
REMARK  165  A    between atoms: _397  and  _399
REMARK  166  A    between atoms: _399  and  _400
REMARK  167  A    between atoms: _399  and  _402
REMARK  168  A    between atoms: _402  and  _403
REMARK  169  A    between atoms: _406  and  _408
REMARK  170  A    between atoms: _408  and  _409
REMARK  171  A    between atoms: _408  and  _411
REMARK  172  A    between atoms: _411  and  _412
REMARK  173  A    between atoms: _417  and  _419
REMARK  174  A    between atoms: _419  and  _420
REMARK  175  A    between atoms: _419  and  _422
REMARK  176  A    between atoms: _422  and  _423
REMARK  177  A    between atoms: _427  and  _428
REMARK  178  A    between atoms: _433  and  _435
REMARK  179  A    between atoms: _435  and  _436
REMARK  180  A    between atoms: _435  and  _438
REMARK  181  A    between atoms: _438  and  _439
REMARK  182  A    between atoms: _442  and  _444
REMARK  183  A    between atoms: _444  and  _445
REMARK  184  A    between atoms: _448  and  _450
REMARK  185  A    between atoms: _450  and  _451
REMARK  186  A    between atoms: _450  and  _453
REMARK  187  A    between atoms: _453  and  _454
REMARK  188  A    between atoms: _454  and  _455
REMARK  189  A    between atoms: _457  and  _459
REMARK  190  A    between atoms: _459  and  _460
REMARK  191  A    between atoms: _459  and  _462
REMARK  192  A    between atoms: _462  and  _463
REMARK  193  A    between atoms: _468  and  _470
REMARK  194  A    between atoms: _470  and  _471
REMARK  195  A    between atoms: _470  and  _473
REMARK  196  A    between atoms: _473  and  _474
REMARK  197  A    between atoms: _484  and  _486
REMARK  198  A    between atoms: _486  and  _487
REMARK  199  A    between atoms: _486  and  _489
REMARK  200  A    between atoms: _492  and  _494
REMARK  201  A    between atoms: _494  and  _495
REMARK  202  A    between atoms: _494  and  _497
REMARK  203  A    between atoms: _497  and  _498
REMARK  204  A    between atoms: _498  and  _499
REMARK  205  A    between atoms: _499  and  _500
REMARK  206  A    between atoms: _500  and  _501
REMARK  207  A    between atoms: _505  and  _507
REMARK  208  A    between atoms: _507  and  _508
REMARK  209  A    between atoms: _507  and  _510
REMARK  210  A    between atoms: _510  and  _511
REMARK  211  A    between atoms: _511  and  _512
REMARK  212  A    between atoms: _515  and  _517
REMARK  213  A    between atoms: _517  and  _518
REMARK  214  A    between atoms: _517  and  _520
REMARK  215  A    between atoms: _520  and  _521
REMARK  216  A    between atoms: _524  and  _526
REMARK  217  A    between atoms: _526  and  _527
REMARK  218  A    between atoms: _526  and  _529
REMARK  219  A    between atoms: _529  and  _530
REMARK  220  A    between atoms: _530  and  _531
REMARK  221  A    between atoms: _531  and  _532
REMARK  222  A    between atoms: _541  and  _543
REMARK  223  A    between atoms: _543  and  _544
REMARK  224  A    between atoms: _543  and  _546
REMARK  225  A    between atoms: _546  and  _547
REMARK  226  A    between atoms: _550  and  _552
REMARK  227  A    between atoms: _552  and  _553
REMARK  228  A    between atoms: _552  and  _555
REMARK  229  A    between atoms: _555  and  _556
REMARK  230  A    between atoms: _561  and  _563
REMARK  231  A    between atoms: _563  and  _564
REMARK  232  A    between atoms: _563  and  _566
REMARK  233  A    between atoms: _566  and  _567
REMARK  234  A    between atoms: _567  and  _568
REMARK  235  A    between atoms: _568  and  _569
REMARK  236  A    between atoms: _578  and  _580
REMARK  237  A    between atoms: _580  and  _581
REMARK  238  A    between atoms: _580  and  _583
REMARK  239  A    between atoms: _583  and  _584
REMARK  240  A    between atoms: _584  and  _585
REMARK  241  A    between atoms: _587  and  _589
REMARK  242  A    between atoms: _589  and  _590
REMARK  243  A    between atoms: _589  and  _592
REMARK  244  A    between atoms: _592  and  _593
REMARK  245  A    between atoms: _593  and  _594
REMARK  246  A    between atoms: _596  and  _598
REMARK  247  A    between atoms: _598  and  _599
REMARK  248  A    between atoms: _598  and  _601
REMARK  249  A    between atoms: _601  and  _602
REMARK  250  A    between atoms: _602  and  _603
REMARK  251  A    between atoms: _603  and  _604
REMARK  252  A    between atoms: _604  and  _605
REMARK  253  A    between atoms: _609  and  _611
REMARK  254  A    between atoms: _611  and  _612
REMARK  255  A    between atoms: _611  and  _614
REMARK  256  A    between atoms: _614  and  _615
REMARK                            x       y       z     vdW  Elec       q    Type
REMARK                         _______ _______ _______ _____ _____    ______ ____
ROOT
ATOM      1  C   ILE A   1      51.624  20.390  26.604  0.00  0.00    +0.238 C 
ATOM      2  O   ILE A   1      51.973  21.507  26.253  0.00  0.00    -0.274 OA
ATOM      3  N   THR A   2      51.371  19.420  25.735  0.00  0.00    -0.296 N 
ATOM      4  H   THR A   2      51.113  18.475  26.083  0.00  0.00    +0.150 HD
ENDROOT
BRANCH   1   5
ATOM      5  CA  ILE A   1      51.491  20.028  28.088  0.00  0.00    +0.145 C 
BRANCH   5   6
ATOM      6  N   ILE A   1      50.221  19.340  28.262  0.00  0.00    -0.238 NA
ATOM      7  H   ILE A   1      50.209  18.352  28.585  0.00  0.00    +0.142 HD
ENDBRANCH   5   6
BRANCH   5   8
ATOM      8  CB  ILE A   1      52.675  19.114  28.481  0.00  0.00    +0.025 C 
ATOM      9  CG2 ILE A   1      53.995  19.804  28.168  0.00  0.00    +0.002 C 
BRANCH   8  10
ATOM     10  CG1 ILE A   1      52.608  18.770  29.972  0.00  0.00    +0.002 C 
ATOM     11  CD1 ILE A   1      53.768  17.848  30.435  0.00  0.00    +0.000 C 
ENDBRANCH   8  10
ENDBRANCH   5   8
ENDBRANCH   1   5
BRANCH   3  12
ATOM     12  CA  THR A   2      51.450  19.660  24.296  0.00  0.00    +0.164 C 
BRANCH  12  13
ATOM     13  C   THR A   2      50.544  20.805  23.836  0.00  0.00    +0.229 C 
ATOM     14  O   THR A   2      50.964  21.676  23.084  0.00  0.00    -0.286 OA
ENDBRANCH  12  13
BRANCH  12  15
ATOM     15  CB  THR A   2      51.087  18.395  23.543  0.00  0.00    +0.136 C 
ATOM     16  CG2 THR A   2      51.156  18.625  22.025  0.00  0.00    +0.034 C 
BRANCH  15  17
ATOM     17  OG1 THR A   2      52.021  17.374  23.934  0.00  0.00    -0.382 OA
ATOM     18  HG1 THR A   2      51.808  16.533  23.457  0.00  0.00    +0.210 HD
ENDBRANCH  15  17
ENDBRANCH  12  15
ENDBRANCH   3  12
TORSDOF 8
REMARK  Name = ../refined-set-2016/1x8r/1x8r_pocket.pdb
REMARK  256 active torsions:
REMARK  status: ('A' for Active; 'I' for Inactive)
REMARK    1  A    between atoms: _1  and  _3
REMARK    2  A    between atoms: _3  and  _4
REMARK    3  A    between atoms: _3  and  _6
REMARK    4  A    between atoms: _6  and  _7
REMARK    5  A    between atoms: _9  and  _11
REMARK    6  A    between atoms: _11  and  _12
REMARK    7  A    between atoms: _11  and  _14
REMARK    8  A    between atoms: _14  and  _15
REMARK    9  A    between atoms: _15  and  _16
REMARK   10  A    between atoms: _16  and  _17
REMARK   11  A    between atoms: _17  and  _18
REMARK   12  A    between atoms: _22  and  _24
REMARK   13  A    between atoms: _24  and  _25
REMARK   14  A    between atoms: _24  and  _27
REMARK   15  A    between atoms: _27  and  _28
REMARK   16  A    between atoms: _30  and  _32
REMARK   17  A    between atoms: _32  and  _33
REMARK   18  A    between atoms: _32  and  _35
REMARK   19  A    between atoms: _38  and  _40
REMARK   20  A    between atoms: _40  and  _41
REMARK   21  A    between atoms: _40  and  _43
REMARK   22  A    between atoms: _43  and  _44
REMARK   23  A    between atoms: _46  and  _48
REMARK   24  A    between atoms: _48  and  _49
REMARK   25  A    between atoms: _48  and  _51
REMARK   26  A    between atoms: _51  and  _52
REMARK   27  A    between atoms: _57  and  _59
REMARK   28  A    between atoms: _59  and  _60
REMARK   29  A    between atoms: _59  and  _62
REMARK   30  A    between atoms: _62  and  _63
REMARK   31  A    between atoms: _63  and  _64
REMARK   32  A    between atoms: _64  and  _65
REMARK   33  A    between atoms: _74  and  _76
REMARK   34  A    between atoms: _76  and  _77
REMARK   35  A    between atoms: _76  and  _79
REMARK   36  A    between atoms: _79  and  _80
REMARK   37  A    between atoms: _83  and  _85
REMARK   38  A    between atoms: _85  and  _86
REMARK   39  A    between atoms: _85  and  _88
REMARK   40  A    between atoms: _88  and  _89
REMARK   41  A    between atoms: _94  and  _96
REMARK   42  A    between atoms: _96  and  _97
REMARK   43  A    between atoms: _100  and  _102
REMARK   44  A    between atoms: _102  and  _103
REMARK   45  A    between atoms: _105  and  _107
REMARK   46  A    between atoms: _107  and  _108
REMARK   47  A    between atoms: _107  and  _110
REMARK   48  A    between atoms: _110  and  _111
REMARK   49  A    between atoms: _114  and  _116
REMARK   50  A    between atoms: _116  and  _117
REMARK   51  A    between atoms: _120  and  _122
REMARK   52  A    between atoms: _122  and  _123
REMARK   53  A    between atoms: _122  and  _125
REMARK   54  A    between atoms: _125  and  _126
REMARK   55  A    between atoms: _126  and  _127
REMARK   56  A    between atoms: _129  and  _131
REMARK   57  A    between atoms: _131  and  _132
REMARK   58  A    between atoms: _131  and  _134
REMARK   59  A    between atoms: _134  and  _135
REMARK   60  A    between atoms: _135  and  _136
REMARK   61  A    between atoms: _136  and  _137
REMARK   62  A    between atoms: _147  and  _148
REMARK   63  A    between atoms: _153  and  _155
REMARK   64  A    between atoms: _155  and  _156
REMARK   65  A    between atoms: _155  and  _158
REMARK   66  A    between atoms: _158  and  _159
REMARK   67  A    between atoms: _159  and  _160
REMARK   68  A    between atoms: _162  and  _164
REMARK   69  A    between atoms: _164  and  _165
REMARK   70  A    between atoms: _164  and  _167
REMARK   71  A    between atoms: _167  and  _168
REMARK   72  A    between atoms: _168  and  _169
REMARK   73  A    between atoms: _169  and  _170
REMARK   74  A    between atoms: _180  and  _181
REMARK   75  A    between atoms: _186  and  _188
REMARK   76  A    between atoms: _188  and  _189
REMARK   77  A    between atoms: _191  and  _193
REMARK   78  A    between atoms: _193  and  _194
REMARK   79  A    between atoms: _193  and  _196
REMARK   80  A    between atoms: _196  and  _197
REMARK   81  A    between atoms: _199  and  _201
REMARK   82  A    between atoms: _201  and  _202
REMARK   83  A    between atoms: _201  and  _204
REMARK   84  A    between atoms: _207  and  _209
REMARK   85  A    between atoms: _209  and  _210
REMARK   86  A    between atoms: _209  and  _212
REMARK   87  A    between atoms: _212  and  _213
REMARK   88  A    between atoms: _215  and  _217
REMARK   89  A    between atoms: _217  and  _218
REMARK   90  A    between atoms: _217  and  _220
REMARK   91  A    between atoms: _220  and  _221
REMARK   92  A    between atoms: _223  and  _225
REMARK   93  A    between atoms: _225  and  _226
REMARK   94  A    between atoms: _225  and  _228
REMARK   95  A    between atoms: _228  and  _229
REMARK   96  A    between atoms: _229  and  _230
REMARK   97  A    between atoms: _235  and  _237
REMARK   98  A    between atoms: _237  and  _238
REMARK   99  A    between atoms: _237  and  _240
REMARK  100  A    between atoms: _240  and  _241
REMARK  101  A    between atoms: _247  and  _249
REMARK  102  A    between atoms: _249  and  _250
REMARK  103  A    between atoms: _249  and  _252
REMARK  104  A    between atoms: _252  and  _253
REMARK  105  A    between atoms: _256  and  _258
REMARK  106  A    between atoms: _258  and  _259
REMARK  107  A    between atoms: _258  and  _261
REMARK  108  A    between atoms: _261  and  _262
REMARK  109  A    between atoms: _265  and  _267
REMARK  110  A    between atoms: _267  and  _268
REMARK  111  A    between atoms: _271  and  _273
REMARK  112  A    between atoms: _273  and  _274
REMARK  113  A    between atoms: _273  and  _276
REMARK  114  A    between atoms: _276  and  _277
REMARK  115  A    between atoms: _277  and  _278
REMARK  116  A    between atoms: _280  and  _282
REMARK  117  A    between atoms: _282  and  _283
REMARK  118  A    between atoms: _282  and  _285
REMARK  119  A    between atoms: _285  and  _286
REMARK  120  A    between atoms: _289  and  _291
REMARK  121  A    between atoms: _291  and  _292
REMARK  122  A    between atoms: _291  and  _294
REMARK  123  A    between atoms: _297  and  _299
REMARK  124  A    between atoms: _299  and  _300
REMARK  125  A    between atoms: _299  and  _302
REMARK  126  A    between atoms: _302  and  _303
REMARK  127  A    between atoms: _305  and  _307
REMARK  128  A    between atoms: _307  and  _308
REMARK  129  A    between atoms: _307  and  _310
REMARK  130  A    between atoms: _310  and  _311
REMARK  131  A    between atoms: _311  and  _312
REMARK  132  A    between atoms: _312  and  _313
REMARK  133  A    between atoms: _313  and  _314
REMARK  134  A    between atoms: _319  and  _320
REMARK  135  A    between atoms: _325  and  _327
REMARK  136  A    between atoms: _327  and  _328
REMARK  137  A    between atoms: _327  and  _330
REMARK  138  A    between atoms: _330  and  _331
REMARK  139  A    between atoms: _336  and  _337
REMARK  140  A    between atoms: _339  and  _341
REMARK  141  A    between atoms: _341  and  _342
REMARK  142  A    between atoms: _341  and  _344
REMARK  143  A    between atoms: _344  and  _345
REMARK  144  A    between atoms: _348  and  _350
REMARK  145  A    between atoms: _350  and  _351
REMARK  146  A    between atoms: _350  and  _353
REMARK  147  A    between atoms: _353  and  _354
REMARK  148  A    between atoms: _357  and  _359
REMARK  149  A    between atoms: _359  and  _360
REMARK  150  A    between atoms: _359  and  _362
REMARK  151  A    between atoms: _362  and  _363
REMARK  152  A    between atoms: _366  and  _368
REMARK  153  A    between atoms: _368  and  _369
REMARK  154  A    between atoms: _368  and  _371
REMARK  155  A    between atoms: _371  and  _372
REMARK  156  A    between atoms: _375  and  _377
REMARK  157  A    between atoms: _377  and  _378
REMARK  158  A    between atoms: _377  and  _380
REMARK  159  A    between atoms: _380  and  _381
REMARK  160  A    between atoms: _383  and  _385
REMARK  161  A    between atoms: _385  and  _386
REMARK  162  A    between atoms: _385  and  _388
REMARK  163  A    between atoms: _388  and  _389
REMARK  164  A    between atoms: _394  and  _395
REMARK  165  A    between atoms: _397  and  _399
REMARK  166  A    between atoms: _399  and  _400
REMARK  167  A    between atoms: _399  and  _402
REMARK  168  A    between atoms: _402  and  _403
REMARK  169  A    between atoms: _406  and  _408
REMARK  170  A    between atoms: _408  and  _409
REMARK  171  A    between atoms: _408  and  _411
REMARK  172  A    between atoms: _411  and  _412
REMARK  173  A    between atoms: _417  and  _419
REMARK  174  A    between atoms: _419  and  _420
REMARK  175  A    between atoms: _419  and  _422
REMARK  176  A    between atoms: _422  and  _423
REMARK  177  A    between atoms: _427  and  _428
REMARK  178  A    between atoms: _433  and  _435
REMARK  179  A    between atoms: _435  and  _436
REMARK  180  A    between atoms: _435  and  _438
REMARK  181  A    between atoms: _438  and  _439
REMARK  182  A    between atoms: _442  and  _444
REMARK  183  A    between atoms: _444  and  _445
REMARK  184  A    between atoms: _448  and  _450
REMARK  185  A    between atoms: _450  and  _451
REMARK  186  A    between atoms: _450  and  _453
REMARK  187  A    between atoms: _453  and  _454
REMARK  188  A    between atoms: _454  and  _455
REMARK  189  A    between atoms: _457  and  _459
REMARK  190  A    between atoms: _459  and  _460
REMARK  191  A    between atoms: _459  and  _462
REMARK  192  A    between atoms: _462  and  _463
REMARK  193  A    between atoms: _468  and  _470
REMARK  194  A    between atoms: _470  and  _471
REMARK  195  A    between atoms: _470  and  _473
REMARK  196  A    between atoms: _473  and  _474
REMARK  197  A    between atoms: _484  and  _486
REMARK  198  A    between atoms: _486  and  _487
REMARK  199  A    between atoms: _486  and  _489
REMARK  200  A    between atoms: _492  and  _494
REMARK  201  A    between atoms: _494  and  _495
REMARK  202  A    between atoms: _494  and  _497
REMARK  203  A    between atoms: _497  and  _498
REMARK  204  A    between atoms: _498  and  _499
REMARK  205  A    between atoms: _499  and  _500
REMARK  206  A    between atoms: _500  and  _501
REMARK  207  A    between atoms: _505  and  _507
REMARK  208  A    between atoms: _507  and  _508
REMARK  209  A    between atoms: _507  and  _510
REMARK  210  A    between atoms: _510  and  _511
REMARK  211  A    between atoms: _511  and  _512
REMARK  212  A    between atoms: _515  and  _517
REMARK  213  A    between atoms: _517  and  _518
REMARK  214  A    between atoms: _517  and  _520
REMARK  215  A    between atoms: _520  and  _521
REMARK  216  A    between atoms: _524  and  _526
REMARK  217  A    between atoms: _526  and  _527
REMARK  218  A    between atoms: _526  and  _529
REMARK  219  A    between atoms: _529  and  _530
REMARK  220  A    between atoms: _530  and  _531
REMARK  221  A    between atoms: _531  and  _532
REMARK  222  A    between atoms: _541  and  _543
REMARK  223  A    between atoms: _543  and  _544
REMARK  224  A    between atoms: _543  and  _546
REMARK  225  A    between atoms: _546  and  _547
REMARK  226  A    between atoms: _550  and  _552
REMARK  227  A    between atoms: _552  and  _553
REMARK  228  A    between atoms: _552  and  _555
REMARK  229  A    between atoms: _555  and  _556
REMARK  230  A    between atoms: _561  and  _563
REMARK  231  A    between atoms: _563  and  _564
REMARK  232  A    between atoms: _563  and  _566
REMARK  233  A    between atoms: _566  and  _567
REMARK  234  A    between atoms: _567  and  _568
REMARK  235  A    between atoms: _568  and  _569
REMARK  236  A    between atoms: _578  and  _580
REMARK  237  A    between atoms: _580  and  _581
REMARK  238  A    between atoms: _580  and  _583
REMARK  239  A    between atoms: _583  and  _584
REMARK  240  A    between atoms: _584  and  _585
REMARK  241  A    between atoms: _587  and  _589
REMARK  242  A    between atoms: _589  and  _590
REMARK  243  A    between atoms: _589  and  _592
REMARK  244  A    between atoms: _592  and  _593
REMARK  245  A    between atoms: _593  and  _594
REMARK  246  A    between atoms: _596  and  _598
REMARK  247  A    between atoms: _598  and  _599
REMARK  248  A    between atoms: _598  and  _601
REMARK  249  A    between atoms: _601  and  _602
REMARK  250  A    between atoms: _602  and  _603
REMARK  251  A    between atoms: _603  and  _604
REMARK  252  A    between atoms: _604  and  _605
REMARK  253  A    between atoms: _609  and  _611
REMARK  254  A    between atoms: _611  and  _612
REMARK  255  A    between atoms: _611  and  _614
REMARK  256  A    between atoms: _614  and  _615
REMARK                            x       y       z     vdW  Elec       q    Type
REMARK                         _______ _______ _______ _____ _____    ______ ____
ROOT
ATOM      1  CA  ASP A   1      61.295  19.609  35.538  0.00  0.00    +0.144 C 
ENDROOT
BRANCH   1   2
ATOM      2  N   ASP A   1      61.841  20.948  35.744  0.00  0.00    -0.239 NA
ATOM      3  H   ASP A   1      62.858  21.058  35.933  0.00  0.00    +0.142 HD
ENDBRANCH   1   2
BRANCH   1   4
ATOM      4  C   ASP A   1      60.595  19.022  36.768  0.00  0.00    +0.225 C 
ATOM      5  O   ASP A   1      61.215  18.727  37.779  0.00  0.00    -0.287 OA
ENDBRANCH   1   4
BRANCH   1   6
ATOM      6  CB  ASP A   1      62.418  18.661  35.076  0.00  0.00    +0.139 C 
BRANCH   6   7
ATOM      7  CG  ASP A   1      61.885  17.408  34.424  0.00  0.00    +0.367 C 
ATOM      8  OD2 ASP A   1      61.155  16.660  35.095  0.00  0.00    -0.246 OA
ATOM      9  OD1 ASP A   1      62.183  17.154  33.240  0.00  0.00    -0.246 OA
ENDBRANCH   6   7
ENDBRANCH   1   6
TORSDOF 4
REMARK  Name = ../refined-set-2016/1x8r/1x8r_pocket.pdb
REMARK  256 active torsions:
REMARK  status: ('A' for Active; 'I' for Inactive)
REMARK    1  A    between atoms: _1  and  _3
REMARK    2  A    between atoms: _3  and  _4
REMARK    3  A    between atoms: _3  and  _6
REMARK    4  A    between atoms: _6  and  _7
REMARK    5  A    between atoms: _9  and  _11
REMARK    6  A    between atoms: _11  and  _12
REMARK    7  A    between atoms: _11  and  _14
REMARK    8  A    between atoms: _14  and  _15
REMARK    9  A    between atoms: _15  and  _16
REMARK   10  A    between atoms: _16  and  _17
REMARK   11  A    between atoms: _17  and  _18
REMARK   12  A    between atoms: _22  and  _24
REMARK   13  A    between atoms: _24  and  _25
REMARK   14  A    between atoms: _24  and  _27
REMARK   15  A    between atoms: _27  and  _28
REMARK   16  A    between atoms: _30  and  _32
REMARK   17  A    between atoms: _32  and  _33
REMARK   18  A    between atoms: _32  and  _35
REMARK   19  A    between atoms: _38  and  _40
REMARK   20  A    between atoms: _40  and  _41
REMARK   21  A    between atoms: _40  and  _43
REMARK   22  A    between atoms: _43  and  _44
REMARK   23  A    between atoms: _46  and  _48
REMARK   24  A    between atoms: _48  and  _49
REMARK   25  A    between atoms: _48  and  _51
REMARK   26  A    between atoms: _51  and  _52
REMARK   27  A    between atoms: _57  and  _59
REMARK   28  A    between atoms: _59  and  _60
REMARK   29  A    between atoms: _59  and  _62
REMARK   30  A    between atoms: _62  and  _63
REMARK   31  A    between atoms: _63  and  _64
REMARK   32  A    between atoms: _64  and  _65
REMARK   33  A    between atoms: _74  and  _76
REMARK   34  A    between atoms: _76  and  _77
REMARK   35  A    between atoms: _76  and  _79
REMARK   36  A    between atoms: _79  and  _80
REMARK   37  A    between atoms: _83  and  _85
REMARK   38  A    between atoms: _85  and  _86
REMARK   39  A    between atoms: _85  and  _88
REMARK   40  A    between atoms: _88  and  _89
REMARK   41  A    between atoms: _94  and  _96
REMARK   42  A    between atoms: _96  and  _97
REMARK   43  A    between atoms: _100  and  _102
REMARK   44  A    between atoms: _102  and  _103
REMARK   45  A    between atoms: _105  and  _107
REMARK   46  A    between atoms: _107  and  _108
REMARK   47  A    between atoms: _107  and  _110
REMARK   48  A    between atoms: _110  and  _111
REMARK   49  A    between atoms: _114  and  _116
REMARK   50  A    between atoms: _116  and  _117
REMARK   51  A    between atoms: _120  and  _122
REMARK   52  A    between atoms: _122  and  _123
REMARK   53  A    between atoms: _122  and  _125
REMARK   54  A    between atoms: _125  and  _126
REMARK   55  A    between atoms: _126  and  _127
REMARK   56  A    between atoms: _129  and  _131
REMARK   57  A    between atoms: _131  and  _132
REMARK   58  A    between atoms: _131  and  _134
REMARK   59  A    between atoms: _134  and  _135
REMARK   60  A    between atoms: _135  and  _136
REMARK   61  A    between atoms: _136  and  _137
REMARK   62  A    between atoms: _147  and  _148
REMARK   63  A    between atoms: _153  and  _155
REMARK   64  A    between atoms: _155  and  _156
REMARK   65  A    between atoms: _155  and  _158
REMARK   66  A    between atoms: _158  and  _159
REMARK   67  A    between atoms: _159  and  _160
REMARK   68  A    between atoms: _162  and  _164
REMARK   69  A    between atoms: _164  and  _165
REMARK   70  A    between atoms: _164  and  _167
REMARK   71  A    between atoms: _167  and  _168
REMARK   72  A    between atoms: _168  and  _169
REMARK   73  A    between atoms: _169  and  _170
REMARK   74  A    between atoms: _180  and  _181
REMARK   75  A    between atoms: _186  and  _188
REMARK   76  A    between atoms: _188  and  _189
REMARK   77  A    between atoms: _191  and  _193
REMARK   78  A    between atoms: _193  and  _194
REMARK   79  A    between atoms: _193  and  _196
REMARK   80  A    between atoms: _196  and  _197
REMARK   81  A    between atoms: _199  and  _201
REMARK   82  A    between atoms: _201  and  _202
REMARK   83  A    between atoms: _201  and  _204
REMARK   84  A    between atoms: _207  and  _209
REMARK   85  A    between atoms: _209  and  _210
REMARK   86  A    between atoms: _209  and  _212
REMARK   87  A    between atoms: _212  and  _213
REMARK   88  A    between atoms: _215  and  _217
REMARK   89  A    between atoms: _217  and  _218
REMARK   90  A    between atoms: _217  and  _220
REMARK   91  A    between atoms: _220  and  _221
REMARK   92  A    between atoms: _223  and  _225
REMARK   93  A    between atoms: _225  and  _226
REMARK   94  A    between atoms: _225  and  _228
REMARK   95  A    between atoms: _228  and  _229
REMARK   96  A    between atoms: _229  and  _230
REMARK   97  A    between atoms: _235  and  _237
REMARK   98  A    between atoms: _237  and  _238
REMARK   99  A    between atoms: _237  and  _240
REMARK  100  A    between atoms: _240  and  _241
REMARK  101  A    between atoms: _247  and  _249
REMARK  102  A    between atoms: _249  and  _250
REMARK  103  A    between atoms: _249  and  _252
REMARK  104  A    between atoms: _252  and  _253
REMARK  105  A    between atoms: _256  and  _258
REMARK  106  A    between atoms: _258  and  _259
REMARK  107  A    between atoms: _258  and  _261
REMARK  108  A    between atoms: _261  and  _262
REMARK  109  A    between atoms: _265  and  _267
REMARK  110  A    between atoms: _267  and  _268
REMARK  111  A    between atoms: _271  and  _273
REMARK  112  A    between atoms: _273  and  _274
REMARK  113  A    between atoms: _273  and  _276
REMARK  114  A    between atoms: _276  and  _277
REMARK  115  A    between atoms: _277  and  _278
REMARK  116  A    between atoms: _280  and  _282
REMARK  117  A    between atoms: _282  and  _283
REMARK  118  A    between atoms: _282  and  _285
REMARK  119  A    between atoms: _285  and  _286
REMARK  120  A    between atoms: _289  and  _291
REMARK  121  A    between atoms: _291  and  _292
REMARK  122  A    between atoms: _291  and  _294
REMARK  123  A    between atoms: _297  and  _299
REMARK  124  A    between atoms: _299  and  _300
REMARK  125  A    between atoms: _299  and  _302
REMARK  126  A    between atoms: _302  and  _303
REMARK  127  A    between atoms: _305  and  _307
REMARK  128  A    between atoms: _307  and  _308
REMARK  129  A    between atoms: _307  and  _310
REMARK  130  A    between atoms: _310  and  _311
REMARK  131  A    between atoms: _311  and  _312
REMARK  132  A    between atoms: _312  and  _313
REMARK  133  A    between atoms: _313  and  _314
REMARK  134  A    between atoms: _319  and  _320
REMARK  135  A    between atoms: _325  and  _327
REMARK  136  A    between atoms: _327  and  _328
REMARK  137  A    between atoms: _327  and  _330
REMARK  138  A    between atoms: _330  and  _331
REMARK  139  A    between atoms: _336  and  _337
REMARK  140  A    between atoms: _339  and  _341
REMARK  141  A    between atoms: _341  and  _342
REMARK  142  A    between atoms: _341  and  _344
REMARK  143  A    between atoms: _344  and  _345
REMARK  144  A    between atoms: _348  and  _350
REMARK  145  A    between atoms: _350  and  _351
REMARK  146  A    between atoms: _350  and  _353
REMARK  147  A    between atoms: _353  and  _354
REMARK  148  A    between atoms: _357  and  _359
REMARK  149  A    between atoms: _359  and  _360
REMARK  150  A    between atoms: _359  and  _362
REMARK  151  A    between atoms: _362  and  _363
REMARK  152  A    between atoms: _366  and  _368
REMARK  153  A    between atoms: _368  and  _369
REMARK  154  A    between atoms: _368  and  _371
REMARK  155  A    between atoms: _371  and  _372
REMARK  156  A    between atoms: _375  and  _377
REMARK  157  A    between atoms: _377  and  _378
REMARK  158  A    between atoms: _377  and  _380
REMARK  159  A    between atoms: _380  and  _381
REMARK  160  A    between atoms: _383  and  _385
REMARK  161  A    between atoms: _385  and  _386
REMARK  162  A    between atoms: _385  and  _388
REMARK  163  A    between atoms: _388  and  _389
REMARK  164  A    between atoms: _394  and  _395
REMARK  165  A    between atoms: _397  and  _399
REMARK  166  A    between atoms: _399  and  _400
REMARK  167  A    between atoms: _399  and  _402
REMARK  168  A    between atoms: _402  and  _403
REMARK  169  A    between atoms: _406  and  _408
REMARK  170  A    between atoms: _408  and  _409
REMARK  171  A    between atoms: _408  and  _411
REMARK  172  A    between atoms: _411  and  _412
REMARK  173  A    between atoms: _417  and  _419
REMARK  174  A    between atoms: _419  and  _420
REMARK  175  A    between atoms: _419  and  _422
REMARK  176  A    between atoms: _422  and  _423
REMARK  177  A    between atoms: _427  and  _428
REMARK  178  A    between atoms: _433  and  _435
REMARK  179  A    between atoms: _435  and  _436
REMARK  180  A    between atoms: _435  and  _438
REMARK  181  A    between atoms: _438  and  _439
REMARK  182  A    between atoms: _442  and  _444
REMARK  183  A    between atoms: _444  and  _445
REMARK  184  A    between atoms: _448  and  _450
REMARK  185  A    between atoms: _450  and  _451
REMARK  186  A    between atoms: _450  and  _453
REMARK  187  A    between atoms: _453  and  _454
REMARK  188  A    between atoms: _454  and  _455
REMARK  189  A    between atoms: _457  and  _459
REMARK  190  A    between atoms: _459  and  _460
REMARK  191  A    between atoms: _459  and  _462
REMARK  192  A    between atoms: _462  and  _463
REMARK  193  A    between atoms: _468  and  _470
REMARK  194  A    between atoms: _470  and  _471
REMARK  195  A    between atoms: _470  and  _473
REMARK  196  A    between atoms: _473  and  _474
REMARK  197  A    between atoms: _484  and  _486
REMARK  198  A    between atoms: _486  and  _487
REMARK  199  A    between atoms: _486  and  _489
REMARK  200  A    between atoms: _492  and  _494
REMARK  201  A    between atoms: _494  and  _495
REMARK  202  A    between atoms: _494  and  _497
REMARK  203  A    between atoms: _497  and  _498
REMARK  204  A    between atoms: _498  and  _499
REMARK  205  A    between atoms: _499  and  _500
REMARK  206  A    between atoms: _500  and  _501
REMARK  207  A    between atoms: _505  and  _507
REMARK  208  A    between atoms: _507  and  _508
REMARK  209  A    between atoms: _507  and  _510
REMARK  210  A    between atoms: _510  and  _511
REMARK  211  A    between atoms: _511  and  _512
REMARK  212  A    between atoms: _515  and  _517
REMARK  213  A    between atoms: _517  and  _518
REMARK  214  A    between atoms: _517  and  _520
REMARK  215  A    between atoms: _520  and  _521
REMARK  216  A    between atoms: _524  and  _526
REMARK  217  A    between atoms: _526  and  _527
REMARK  218  A    between atoms: _526  and  _529
REMARK  219  A    between atoms: _529  and  _530
REMARK  220  A    between atoms: _530  and  _531
REMARK  221  A    between atoms: _531  and  _532
REMARK  222  A    between atoms: _541  and  _543
REMARK  223  A    between atoms: _543  and  _544
REMARK  224  A    between atoms: _543  and  _546
REMARK  225  A    between atoms: _546  and  _547
REMARK  226  A    between atoms: _550  and  _552
REMARK  227  A    between atoms: _552  and  _553
REMARK  228  A    between atoms: _552  and  _555
REMARK  229  A    between atoms: _555  and  _556
REMARK  230  A    between atoms: _561  and  _563
REMARK  231  A    between atoms: _563  and  _564
REMARK  232  A    between atoms: _563  and  _566
REMARK  233  A    between atoms: _566  and  _567
REMARK  234  A    between atoms: _567  and  _568
REMARK  235  A    between atoms: _568  and  _569
REMARK  236  A    between atoms: _578  and  _580
REMARK  237  A    between atoms: _580  and  _581
REMARK  238  A    between atoms: _580  and  _583
REMARK  239  A    between atoms: _583  and  _584
REMARK  240  A    between atoms: _584  and  _585
REMARK  241  A    between atoms: _587  and  _589
REMARK  242  A    between atoms: _589  and  _590
REMARK  243  A    between atoms: _589  and  _592
REMARK  244  A    between atoms: _592  and  _593
REMARK  245  A    between atoms: _593  and  _594
REMARK  246  A    between atoms: _596  and  _598
REMARK  247  A    between atoms: _598  and  _599
REMARK  248  A    between atoms: _598  and  _601
REMARK  249  A    between atoms: _601  and  _602
REMARK  250  A    between atoms: _602  and  _603
REMARK  251  A    between atoms: _603  and  _604
REMARK  252  A    between atoms: _604  and  _605
REMARK  253  A    between atoms: _609  and  _611
REMARK  254  A    between atoms: _611  and  _612
REMARK  255  A    between atoms: _611  and  _614
REMARK  256  A    between atoms: _614  and  _615
REMARK                            x       y       z     vdW  Elec       q    Type
REMARK                         _______ _______ _______ _____ _____    ______ ____
ROOT
ATOM      1  CA  SER A   1      59.543  14.679  37.215  0.00  0.00    +0.163 C 
ENDROOT
BRANCH   1   2
ATOM      2  N   SER A   1      59.221  16.082  37.018  0.00  0.00    -0.237 NA
ATOM      3  H   SER A   1      59.317  16.513  36.076  0.00  0.00    +0.142 HD
ENDBRANCH   1   2
BRANCH   1   4
ATOM      4  CB  SER A   1      60.856  14.620  38.000  0.00  0.00    +0.227 C 
ATOM      5  OG  SER A   1      60.963  13.861  38.956  0.00  0.00    -0.287 OA
ENDBRANCH   1   4
BRANCH   1   6
ATOM      6  C   SER A   1      59.669  13.981  35.861  0.00  0.00    +0.162 C 
BRANCH   6   7
ATOM      7  O   SER A   1      58.459  14.126  35.130  0.00  0.00    -0.380 OA
ATOM      8  H   SER A   1      57.715  13.719  35.641  0.00  0.00    +0.211 HD
ENDBRANCH   6   7
ENDBRANCH   1   6
TORSDOF 4
REMARK  Name = ../refined-set-2016/1x8r/1x8r_pocket.pdb
REMARK  256 active torsions:
REMARK  status: ('A' for Active; 'I' for Inactive)
REMARK    1  A    between atoms: _1  and  _3
REMARK    2  A    between atoms: _3  and  _4
REMARK    3  A    between atoms: _3  and  _6
REMARK    4  A    between atoms: _6  and  _7
REMARK    5  A    between atoms: _9  and  _11
REMARK    6  A    between atoms: _11  and  _12
REMARK    7  A    between atoms: _11  and  _14
REMARK    8  A    between atoms: _14  and  _15
REMARK    9  A    between atoms: _15  and  _16
REMARK   10  A    between atoms: _16  and  _17
REMARK   11  A    between atoms: _17  and  _18
REMARK   12  A    between atoms: _22  and  _24
REMARK   13  A    between atoms: _24  and  _25
REMARK   14  A    between atoms: _24  and  _27
REMARK   15  A    between atoms: _27  and  _28
REMARK   16  A    between atoms: _30  and  _32
REMARK   17  A    between atoms: _32  and  _33
REMARK   18  A    between atoms: _32  and  _35
REMARK   19  A    between atoms: _38  and  _40
REMARK   20  A    between atoms: _40  and  _41
REMARK   21  A    between atoms: _40  and  _43
REMARK   22  A    between atoms: _43  and  _44
REMARK   23  A    between atoms: _46  and  _48
REMARK   24  A    between atoms: _48  and  _49
REMARK   25  A    between atoms: _48  and  _51
REMARK   26  A    between atoms: _51  and  _52
REMARK   27  A    between atoms: _57  and  _59
REMARK   28  A    between atoms: _59  and  _60
REMARK   29  A    between atoms: _59  and  _62
REMARK   30  A    between atoms: _62  and  _63
REMARK   31  A    between atoms: _63  and  _64
REMARK   32  A    between atoms: _64  and  _65
REMARK   33  A    between atoms: _74  and  _76
REMARK   34  A    between atoms: _76  and  _77
REMARK   35  A    between atoms: _76  and  _79
REMARK   36  A    between atoms: _79  and  _80
REMARK   37  A    between atoms: _83  and  _85
REMARK   38  A    between atoms: _85  and  _86
REMARK   39  A    between atoms: _85  and  _88
REMARK   40  A    between atoms: _88  and  _89
REMARK   41  A    between atoms: _94  and  _96
REMARK   42  A    between atoms: _96  and  _97
REMARK   43  A    between atoms: _100  and  _102
REMARK   44  A    between atoms: _102  and  _103
REMARK   45  A    between atoms: _105  and  _107
REMARK   46  A    between atoms: _107  and  _108
REMARK   47  A    between atoms: _107  and  _110
REMARK   48  A    between atoms: _110  and  _111
REMARK   49  A    between atoms: _114  and  _116
REMARK   50  A    between atoms: _116  and  _117
REMARK   51  A    between atoms: _120  and  _122
REMARK   52  A    between atoms: _122  and  _123
REMARK   53  A    between atoms: _122  and  _125
REMARK   54  A    between atoms: _125  and  _126
REMARK   55  A    between atoms: _126  and  _127
REMARK   56  A    between atoms: _129  and  _131
REMARK   57  A    between atoms: _131  and  _132
REMARK   58  A    between atoms: _131  and  _134
REMARK   59  A    between atoms: _134  and  _135
REMARK   60  A    between atoms: _135  and  _136
REMARK   61  A    between atoms: _136  and  _137
REMARK   62  A    between atoms: _147  and  _148
REMARK   63  A    between atoms: _153  and  _155
REMARK   64  A    between atoms: _155  and  _156
REMARK   65  A    between atoms: _155  and  _158
REMARK   66  A    between atoms: _158  and  _159
REMARK   67  A    between atoms: _159  and  _160
REMARK   68  A    between atoms: _162  and  _164
REMARK   69  A    between atoms: _164  and  _165
REMARK   70  A    between atoms: _164  and  _167
REMARK   71  A    between atoms: _167  and  _168
REMARK   72  A    between atoms: _168  and  _169
REMARK   73  A    between atoms: _169  and  _170
REMARK   74  A    between atoms: _180  and  _181
REMARK   75  A    between atoms: _186  and  _188
REMARK   76  A    between atoms: _188  and  _189
REMARK   77  A    between atoms: _191  and  _193
REMARK   78  A    between atoms: _193  and  _194
REMARK   79  A    between atoms: _193  and  _196
REMARK   80  A    between atoms: _196  and  _197
REMARK   81  A    between atoms: _199  and  _201
REMARK   82  A    between atoms: _201  and  _202
REMARK   83  A    between atoms: _201  and  _204
REMARK   84  A    between atoms: _207  and  _209
REMARK   85  A    between atoms: _209  and  _210
REMARK   86  A    between atoms: _209  and  _212
REMARK   87  A    between atoms: _212  and  _213
REMARK   88  A    between atoms: _215  and  _217
REMARK   89  A    between atoms: _217  and  _218
REMARK   90  A    between atoms: _217  and  _220
REMARK   91  A    between atoms: _220  and  _221
REMARK   92  A    between atoms: _223  and  _225
REMARK   93  A    between atoms: _225  and  _226
REMARK   94  A    between atoms: _225  and  _228
REMARK   95  A    between atoms: _228  and  _229
REMARK   96  A    between atoms: _229  and  _230
REMARK   97  A    between atoms: _235  and  _237
REMARK   98  A    between atoms: _237  and  _238
REMARK   99  A    between atoms: _237  and  _240
REMARK  100  A    between atoms: _240  and  _241
REMARK  101  A    between atoms: _247  and  _249
REMARK  102  A    between atoms: _249  and  _250
REMARK  103  A    between atoms: _249  and  _252
REMARK  104  A    between atoms: _252  and  _253
REMARK  105  A    between atoms: _256  and  _258
REMARK  106  A    between atoms: _258  and  _259
REMARK  107  A    between atoms: _258  and  _261
REMARK  108  A    between atoms: _261  and  _262
REMARK  109  A    between atoms: _265  and  _267
REMARK  110  A    between atoms: _267  and  _268
REMARK  111  A    between atoms: _271  and  _273
REMARK  112  A    between atoms: _273  and  _274
REMARK  113  A    between atoms: _273  and  _276
REMARK  114  A    between atoms: _276  and  _277
REMARK  115  A    between atoms: _277  and  _278
REMARK  116  A    between atoms: _280  and  _282
REMARK  117  A    between atoms: _282  and  _283
REMARK  118  A    between atoms: _282  and  _285
REMARK  119  A    between atoms: _285  and  _286
REMARK  120  A    between atoms: _289  and  _291
REMARK  121  A    between atoms: _291  and  _292
REMARK  122  A    between atoms: _291  and  _294
REMARK  123  A    between atoms: _297  and  _299
REMARK  124  A    between atoms: _299  and  _300
REMARK  125  A    between atoms: _299  and  _302
REMARK  126  A    between atoms: _302  and  _303
REMARK  127  A    between atoms: _305  and  _307
REMARK  128  A    between atoms: _307  and  _308
REMARK  129  A    between atoms: _307  and  _310
REMARK  130  A    between atoms: _310  and  _311
REMARK  131  A    between atoms: _311  and  _312
REMARK  132  A    between atoms: _312  and  _313
REMARK  133  A    between atoms: _313  and  _314
REMARK  134  A    between atoms: _319  and  _320
REMARK  135  A    between atoms: _325  and  _327
REMARK  136  A    between atoms: _327  and  _328
REMARK  137  A    between atoms: _327  and  _330
REMARK  138  A    between atoms: _330  and  _331
REMARK  139  A    between atoms: _336  and  _337
REMARK  140  A    between atoms: _339  and  _341
REMARK  141  A    between atoms: _341  and  _342
REMARK  142  A    between atoms: _341  and  _344
REMARK  143  A    between atoms: _344  and  _345
REMARK  144  A    between atoms: _348  and  _350
REMARK  145  A    between atoms: _350  and  _351
REMARK  146  A    between atoms: _350  and  _353
REMARK  147  A    between atoms: _353  and  _354
REMARK  148  A    between atoms: _357  and  _359
REMARK  149  A    between atoms: _359  and  _360
REMARK  150  A    between atoms: _359  and  _362
REMARK  151  A    between atoms: _362  and  _363
REMARK  152  A    between atoms: _366  and  _368
REMARK  153  A    between atoms: _368  and  _369
REMARK  154  A    between atoms: _368  and  _371
REMARK  155  A    between atoms: _371  and  _372
REMARK  156  A    between atoms: _375  and  _377
REMARK  157  A    between atoms: _377  and  _378
REMARK  158  A    between atoms: _377  and  _380
REMARK  159  A    between atoms: _380  and  _381
REMARK  160  A    between atoms: _383  and  _385
REMARK  161  A    between atoms: _385  and  _386
REMARK  162  A    between atoms: _385  and  _388
REMARK  163  A    between atoms: _388  and  _389
REMARK  164  A    between atoms: _394  and  _395
REMARK  165  A    between atoms: _397  and  _399
REMARK  166  A    between atoms: _399  and  _400
REMARK  167  A    between atoms: _399  and  _402
REMARK  168  A    between atoms: _402  and  _403
REMARK  169  A    between atoms: _406  and  _408
REMARK  170  A    between atoms: _408  and  _409
REMARK  171  A    between atoms: _408  and  _411
REMARK  172  A    between atoms: _411  and  _412
REMARK  173  A    between atoms: _417  and  _419
REMARK  174  A    between atoms: _419  and  _420
REMARK  175  A    between atoms: _419  and  _422
REMARK  176  A    between atoms: _422  and  _423
REMARK  177  A    between atoms: _427  and  _428
REMARK  178  A    between atoms: _433  and  _435
REMARK  179  A    between atoms: _435  and  _436
REMARK  180  A    between atoms: _435  and  _438
REMARK  181  A    between atoms: _438  and  _439
REMARK  182  A    between atoms: _442  and  _444
REMARK  183  A    between atoms: _444  and  _445
REMARK  184  A    between atoms: _448  and  _450
REMARK  185  A    between atoms: _450  and  _451
REMARK  186  A    between atoms: _450  and  _453
REMARK  187  A    between atoms: _453  and  _454
REMARK  188  A    between atoms: _454  and  _455
REMARK  189  A    between atoms: _457  and  _459
REMARK  190  A    between atoms: _459  and  _460
REMARK  191  A    between atoms: _459  and  _462
REMARK  192  A    between atoms: _462  and  _463
REMARK  193  A    between atoms: _468  and  _470
REMARK  194  A    between atoms: _470  and  _471
REMARK  195  A    between atoms: _470  and  _473
REMARK  196  A    between atoms: _473  and  _474
REMARK  197  A    between atoms: _484  and  _486
REMARK  198  A    between atoms: _486  and  _487
REMARK  199  A    between atoms: _486  and  _489
REMARK  200  A    between atoms: _492  and  _494
REMARK  201  A    between atoms: _494  and  _495
REMARK  202  A    between atoms: _494  and  _497
REMARK  203  A    between atoms: _497  and  _498
REMARK  204  A    between atoms: _498  and  _499
REMARK  205  A    between atoms: _499  and  _500
REMARK  206  A    between atoms: _500  and  _501
REMARK  207  A    between atoms: _505  and  _507
REMARK  208  A    between atoms: _507  and  _508
REMARK  209  A    between atoms: _507  and  _510
REMARK  210  A    between atoms: _510  and  _511
REMARK  211  A    between atoms: _511  and  _512
REMARK  212  A    between atoms: _515  and  _517
REMARK  213  A    between atoms: _517  and  _518
REMARK  214  A    between atoms: _517  and  _520
REMARK  215  A    between atoms: _520  and  _521
REMARK  216  A    between atoms: _524  and  _526
REMARK  217  A    between atoms: _526  and  _527
REMARK  218  A    between atoms: _526  and  _529
REMARK  219  A    between atoms: _529  and  _530
REMARK  220  A    between atoms: _530  and  _531
REMARK  221  A    between atoms: _531  and  _532
REMARK  222  A    between atoms: _541  and  _543
REMARK  223  A    between atoms: _543  and  _544
REMARK  224  A    between atoms: _543  and  _546
REMARK  225  A    between atoms: _546  and  _547
REMARK  226  A    between atoms: _550  and  _552
REMARK  227  A    between atoms: _552  and  _553
REMARK  228  A    between atoms: _552  and  _555
REMARK  229  A    between atoms: _555  and  _556
REMARK  230  A    between atoms: _561  and  _563
REMARK  231  A    between atoms: _563  and  _564
REMARK  232  A    between atoms: _563  and  _566
REMARK  233  A    between atoms: _566  and  _567
REMARK  234  A    between atoms: _567  and  _568
REMARK  235  A    between atoms: _568  and  _569
REMARK  236  A    between atoms: _578  and  _580
REMARK  237  A    between atoms: _580  and  _581
REMARK  238  A    between atoms: _580  and  _583
REMARK  239  A    between atoms: _583  and  _584
REMARK  240  A    between atoms: _584  and  _585
REMARK  241  A    between atoms: _587  and  _589
REMARK  242  A    between atoms: _589  and  _590
REMARK  243  A    between atoms: _589  and  _592
REMARK  244  A    between atoms: _592  and  _593
REMARK  245  A    between atoms: _593  and  _594
REMARK  246  A    between atoms: _596  and  _598
REMARK  247  A    between atoms: _598  and  _599
REMARK  248  A    between atoms: _598  and  _601
REMARK  249  A    between atoms: _601  and  _602
REMARK  250  A    between atoms: _602  and  _603
REMARK  251  A    between atoms: _603  and  _604
REMARK  252  A    between atoms: _604  and  _605
REMARK  253  A    between atoms: _609  and  _611
REMARK  254  A    between atoms: _611  and  _612
REMARK  255  A    between atoms: _611  and  _614
REMARK  256  A    between atoms: _614  and  _615
REMARK                            x       y       z     vdW  Elec       q    Type
REMARK                         _______ _______ _______ _____ _____    ______ ____
ROOT
ATOM      1  CG  TYR A   1      64.113  11.708  41.751  0.00  0.00    -0.020 A 
ATOM      2  CD2 TYR A   1      63.671  10.378  41.777  0.00  0.00    -0.001 A 
ATOM      3  CE2 TYR A   1      63.257   9.735  40.609  0.00  0.00    +0.036 A 
ATOM      4  CZ  TYR A   1      63.292  10.422  39.397  0.00  0.00    +0.134 A 
ATOM      5  CE1 TYR A   1      63.742  11.732  39.345  0.00  0.00    +0.036 A 
ATOM      6  CD1 TYR A   1      64.146  12.377  40.526  0.00  0.00    -0.001 A 
ENDROOT
BRANCH   4   7
ATOM      7  OH  TYR A   1      62.848   9.796  38.251  0.00  0.00    -0.506 OA
ATOM      8  HH  TYR A   1      62.566   8.872  38.469  0.00  0.00    +0.292 HD
ENDBRANCH   4   7
BRANCH   1   9
ATOM      9  CB  TYR A   1      64.439  12.435  43.037  0.00  0.00    +0.051 C 
BRANCH   9  10
ATOM     10  CA  TYR A   1      63.164  12.652  43.861  0.00  0.00    +0.137 C 
BRANCH  10  11
ATOM     11  N   TYR A   1      62.152  13.295  43.027  0.00  0.00    -0.239 NA
ATOM     12  H   TYR A   1      62.389  13.597  42.061  0.00  0.00    +0.142 HD
ENDBRANCH  10  11
BRANCH  10  13
ATOM     13  C   TYR A   1      63.494  13.445  45.118  0.00  0.00    +0.224 C 
ATOM     14  O   TYR A   1      63.605  12.879  46.214  0.00  0.00    -0.287 OA
ENDBRANCH  10  13
ENDBRANCH   9  10
ENDBRANCH   1   9
TORSDOF 5
REMARK  Name = ../refined-set-2016/1x8r/1x8r_pocket.pdb
REMARK  256 active torsions:
REMARK  status: ('A' for Active; 'I' for Inactive)
REMARK    1  A    between atoms: _1  and  _3
REMARK    2  A    between atoms: _3  and  _4
REMARK    3  A    between atoms: _3  and  _6
REMARK    4  A    between atoms: _6  and  _7
REMARK    5  A    between atoms: _9  and  _11
REMARK    6  A    between atoms: _11  and  _12
REMARK    7  A    between atoms: _11  and  _14
REMARK    8  A    between atoms: _14  and  _15
REMARK    9  A    between atoms: _15  and  _16
REMARK   10  A    between atoms: _16  and  _17
REMARK   11  A    between atoms: _17  and  _18
REMARK   12  A    between atoms: _22  and  _24
REMARK   13  A    between atoms: _24  and  _25
REMARK   14  A    between atoms: _24  and  _27
REMARK   15  A    between atoms: _27  and  _28
REMARK   16  A    between atoms: _30  and  _32
REMARK   17  A    between atoms: _32  and  _33
REMARK   18  A    between atoms: _32  and  _35
REMARK   19  A    between atoms: _38  and  _40
REMARK   20  A    between atoms: _40  and  _41
REMARK   21  A    between atoms: _40  and  _43
REMARK   22  A    between atoms: _43  and  _44
REMARK   23  A    between atoms: _46  and  _48
REMARK   24  A    between atoms: _48  and  _49
REMARK   25  A    between atoms: _48  and  _51
REMARK   26  A    between atoms: _51  and  _52
REMARK   27  A    between atoms: _57  and  _59
REMARK   28  A    between atoms: _59  and  _60
REMARK   29  A    between atoms: _59  and  _62
REMARK   30  A    between atoms: _62  and  _63
REMARK   31  A    between atoms: _63  and  _64
REMARK   32  A    between atoms: _64  and  _65
REMARK   33  A    between atoms: _74  and  _76
REMARK   34  A    between atoms: _76  and  _77
REMARK   35  A    between atoms: _76  and  _79
REMARK   36  A    between atoms: _79  and  _80
REMARK   37  A    between atoms: _83  and  _85
REMARK   38  A    between atoms: _85  and  _86
REMARK   39  A    between atoms: _85  and  _88
REMARK   40  A    between atoms: _88  and  _89
REMARK   41  A    between atoms: _94  and  _96
REMARK   42  A    between atoms: _96  and  _97
REMARK   43  A    between atoms: _100  and  _102
REMARK   44  A    between atoms: _102  and  _103
REMARK   45  A    between atoms: _105  and  _107
REMARK   46  A    between atoms: _107  and  _108
REMARK   47  A    between atoms: _107  and  _110
REMARK   48  A    between atoms: _110  and  _111
REMARK   49  A    between atoms: _114  and  _116
REMARK   50  A    between atoms: _116  and  _117
REMARK   51  A    between atoms: _120  and  _122
REMARK   52  A    between atoms: _122  and  _123
REMARK   53  A    between atoms: _122  and  _125
REMARK   54  A    between atoms: _125  and  _126
REMARK   55  A    between atoms: _126  and  _127
REMARK   56  A    between atoms: _129  and  _131
REMARK   57  A    between atoms: _131  and  _132
REMARK   58  A    between atoms: _131  and  _134
REMARK   59  A    between atoms: _134  and  _135
REMARK   60  A    between atoms: _135  and  _136
REMARK   61  A    between atoms: _136  and  _137
REMARK   62  A    between atoms: _147  and  _148
REMARK   63  A    between atoms: _153  and  _155
REMARK   64  A    between atoms: _155  and  _156
REMARK   65  A    between atoms: _155  and  _158
REMARK   66  A    between atoms: _158  and  _159
REMARK   67  A    between atoms: _159  and  _160
REMARK   68  A    between atoms: _162  and  _164
REMARK   69  A    between atoms: _164  and  _165
REMARK   70  A    between atoms: _164  and  _167
REMARK   71  A    between atoms: _167  and  _168
REMARK   72  A    between atoms: _168  and  _169
REMARK   73  A    between atoms: _169  and  _170
REMARK   74  A    between atoms: _180  and  _181
REMARK   75  A    between atoms: _186  and  _188
REMARK   76  A    between atoms: _188  and  _189
REMARK   77  A    between atoms: _191  and  _193
REMARK   78  A    between atoms: _193  and  _194
REMARK   79  A    between atoms: _193  and  _196
REMARK   80  A    between atoms: _196  and  _197
REMARK   81  A    between atoms: _199  and  _201
REMARK   82  A    between atoms: _201  and  _202
REMARK   83  A    between atoms: _201  and  _204
REMARK   84  A    between atoms: _207  and  _209
REMARK   85  A    between atoms: _209  and  _210
REMARK   86  A    between atoms: _209  and  _212
REMARK   87  A    between atoms: _212  and  _213
REMARK   88  A    between atoms: _215  and  _217
REMARK   89  A    between atoms: _217  and  _218
REMARK   90  A    between atoms: _217  and  _220
REMARK   91  A    between atoms: _220  and  _221
REMARK   92  A    between atoms: _223  and  _225
REMARK   93  A    between atoms: _225  and  _226
REMARK   94  A    between atoms: _225  and  _228
REMARK   95  A    between atoms: _228  and  _229
REMARK   96  A    between atoms: _229  and  _230
REMARK   97  A    between atoms: _235  and  _237
REMARK   98  A    between atoms: _237  and  _238
REMARK   99  A    between atoms: _237  and  _240
REMARK  100  A    between atoms: _240  and  _241
REMARK  101  A    between atoms: _247  and  _249
REMARK  102  A    between atoms: _249  and  _250
REMARK  103  A    between atoms: _249  and  _252
REMARK  104  A    between atoms: _252  and  _253
REMARK  105  A    between atoms: _256  and  _258
REMARK  106  A    between atoms: _258  and  _259
REMARK  107  A    between atoms: _258  and  _261
REMARK  108  A    between atoms: _261  and  _262
REMARK  109  A    between atoms: _265  and  _267
REMARK  110  A    between atoms: _267  and  _268
REMARK  111  A    between atoms: _271  and  _273
REMARK  112  A    between atoms: _273  and  _274
REMARK  113  A    between atoms: _273  and  _276
REMARK  114  A    between atoms: _276  and  _277
REMARK  115  A    between atoms: _277  and  _278
REMARK  116  A    between atoms: _280  and  _282
REMARK  117  A    between atoms: _282  and  _283
REMARK  118  A    between atoms: _282  and  _285
REMARK  119  A    between atoms: _285  and  _286
REMARK  120  A    between atoms: _289  and  _291
REMARK  121  A    between atoms: _291  and  _292
REMARK  122  A    between atoms: _291  and  _294
REMARK  123  A    between atoms: _297  and  _299
REMARK  124  A    between atoms: _299  and  _300
REMARK  125  A    between atoms: _299  and  _302
REMARK  126  A    between atoms: _302  and  _303
REMARK  127  A    between atoms: _305  and  _307
REMARK  128  A    between atoms: _307  and  _308
REMARK  129  A    between atoms: _307  and  _310
REMARK  130  A    between atoms: _310  and  _311
REMARK  131  A    between atoms: _311  and  _312
REMARK  132  A    between atoms: _312  and  _313
REMARK  133  A    between atoms: _313  and  _314
REMARK  134  A    between atoms: _319  and  _320
REMARK  135  A    between atoms: _325  and  _327
REMARK  136  A    between atoms: _327  and  _328
REMARK  137  A    between atoms: _327  and  _330
REMARK  138  A    between atoms: _330  and  _331
REMARK  139  A    between atoms: _336  and  _337
REMARK  140  A    between atoms: _339  and  _341
REMARK  141  A    between atoms: _341  and  _342
REMARK  142  A    between atoms: _341  and  _344
REMARK  143  A    between atoms: _344  and  _345
REMARK  144  A    between atoms: _348  and  _350
REMARK  145  A    between atoms: _350  and  _351
REMARK  146  A    between atoms: _350  and  _353
REMARK  147  A    between atoms: _353  and  _354
REMARK  148  A    between atoms: _357  and  _359
REMARK  149  A    between atoms: _359  and  _360
REMARK  150  A    between atoms: _359  and  _362
REMARK  151  A    between atoms: _362  and  _363
REMARK  152  A    between atoms: _366  and  _368
REMARK  153  A    between atoms: _368  and  _369
REMARK  154  A    between atoms: _368  and  _371
REMARK  155  A    between atoms: _371  and  _372
REMARK  156  A    between atoms: _375  and  _377
REMARK  157  A    between atoms: _377  and  _378
REMARK  158  A    between atoms: _377  and  _380
REMARK  159  A    between atoms: _380  and  _381
REMARK  160  A    between atoms: _383  and  _385
REMARK  161  A    between atoms: _385  and  _386
REMARK  162  A    between atoms: _385  and  _388
REMARK  163  A    between atoms: _388  and  _389
REMARK  164  A    between atoms: _394  and  _395
REMARK  165  A    between atoms: _397  and  _399
REMARK  166  A    between atoms: _399  and  _400
REMARK  167  A    between atoms: _399  and  _402
REMARK  168  A    between atoms: _402  and  _403
REMARK  169  A    between atoms: _406  and  _408
REMARK  170  A    between atoms: _408  and  _409
REMARK  171  A    between atoms: _408  and  _411
REMARK  172  A    between atoms: _411  and  _412
REMARK  173  A    between atoms: _417  and  _419
REMARK  174  A    between atoms: _419  and  _420
REMARK  175  A    between atoms: _419  and  _422
REMARK  176  A    between atoms: _422  and  _423
REMARK  177  A    between atoms: _427  and  _428
REMARK  178  A    between atoms: _433  and  _435
REMARK  179  A    between atoms: _435  and  _436
REMARK  180  A    between atoms: _435  and  _438
REMARK  181  A    between atoms: _438  and  _439
REMARK  182  A    between atoms: _442  and  _444
REMARK  183  A    between atoms: _444  and  _445
REMARK  184  A    between atoms: _448  and  _450
REMARK  185  A    between atoms: _450  and  _451
REMARK  186  A    between atoms: _450  and  _453
REMARK  187  A    between atoms: _453  and  _454
REMARK  188  A    between atoms: _454  and  _455
REMARK  189  A    between atoms: _457  and  _459
REMARK  190  A    between atoms: _459  and  _460
REMARK  191  A    between atoms: _459  and  _462
REMARK  192  A    between atoms: _462  and  _463
REMARK  193  A    between atoms: _468  and  _470
REMARK  194  A    between atoms: _470  and  _471
REMARK  195  A    between atoms: _470  and  _473
REMARK  196  A    between atoms: _473  and  _474
REMARK  197  A    between atoms: _484  and  _486
REMARK  198  A    between atoms: _486  and  _487
REMARK  199  A    between atoms: _486  and  _489
REMARK  200  A    between atoms: _492  and  _494
REMARK  201  A    between atoms: _494  and  _495
REMARK  202  A    between atoms: _494  and  _497
REMARK  203  A    between atoms: _497  and  _498
REMARK  204  A    between atoms: _498  and  _499
REMARK  205  A    between atoms: _499  and  _500
REMARK  206  A    between atoms: _500  and  _501
REMARK  207  A    between atoms: _505  and  _507
REMARK  208  A    between atoms: _507  and  _508
REMARK  209  A    between atoms: _507  and  _510
REMARK  210  A    between atoms: _510  and  _511
REMARK  211  A    between atoms: _511  and  _512
REMARK  212  A    between atoms: _515  and  _517
REMARK  213  A    between atoms: _517  and  _518
REMARK  214  A    between atoms: _517  and  _520
REMARK  215  A    between atoms: _520  and  _521
REMARK  216  A    between atoms: _524  and  _526
REMARK  217  A    between atoms: _526  and  _527
REMARK  218  A    between atoms: _526  and  _529
REMARK  219  A    between atoms: _529  and  _530
REMARK  220  A    between atoms: _530  and  _531
REMARK  221  A    between atoms: _531  and  _532
REMARK  222  A    between atoms: _541  and  _543
REMARK  223  A    between atoms: _543  and  _544
REMARK  224  A    between atoms: _543  and  _546
REMARK  225  A    between atoms: _546  and  _547
REMARK  226  A    between atoms: _550  and  _552
REMARK  227  A    between atoms: _552  and  _553
REMARK  228  A    between atoms: _552  and  _555
REMARK  229  A    between atoms: _555  and  _556
REMARK  230  A    between atoms: _561  and  _563
REMARK  231  A    between atoms: _563  and  _564
REMARK  232  A    between atoms: _563  and  _566
REMARK  233  A    between atoms: _566  and  _567
REMARK  234  A    between atoms: _567  and  _568
REMARK  235  A    between atoms: _568  and  _569
REMARK  236  A    between atoms: _578  and  _580
REMARK  237  A    between atoms: _580  and  _581
REMARK  238  A    between atoms: _580  and  _583
REMARK  239  A    between atoms: _583  and  _584
REMARK  240  A    between atoms: _584  and  _585
REMARK  241  A    between atoms: _587  and  _589
REMARK  242  A    between atoms: _589  and  _590
REMARK  243  A    between atoms: _589  and  _592
REMARK  244  A    between atoms: _592  and  _593
REMARK  245  A    between atoms: _593  and  _594
REMARK  246  A    between atoms: _596  and  _598
REMARK  247  A    between atoms: _598  and  _599
REMARK  248  A    between atoms: _598  and  _601
REMARK  249  A    between atoms: _601  and  _602
REMARK  250  A    between atoms: _602  and  _603
REMARK  251  A    between atoms: _603  and  _604
REMARK  252  A    between atoms: _604  and  _605
REMARK  253  A    between atoms: _609  and  _611
REMARK  254  A    between atoms: _611  and  _612
REMARK  255  A    between atoms: _611  and  _614
REMARK  256  A    between atoms: _614  and  _615
REMARK                            x       y       z     vdW  Elec       q    Type
REMARK                         _______ _______ _______ _____ _____    ______ ____
ROOT
ATOM      1  CA  ASP A   1      53.888  15.539  37.737  0.00  0.00    +0.144 C 
ENDROOT
BRANCH   1   2
ATOM      2  N   ASP A   1      53.172  16.092  36.593  0.00  0.00    -0.239 NA
ATOM      3  H   ASP A   1      53.673  16.389  35.731  0.00  0.00    +0.142 HD
ENDBRANCH   1   2
BRANCH   1   4
ATOM      4  C   ASP A   1      53.917  16.390  38.994  0.00  0.00    +0.225 C 
ATOM      5  O   ASP A   1      54.396  15.933  40.022  0.00  0.00    -0.287 OA
ENDBRANCH   1   4
BRANCH   1   6
ATOM      6  CB  ASP A   1      55.317  15.084  37.341  0.00  0.00    +0.139 C 
BRANCH   6   7
ATOM      7  CG  ASP A   1      55.326  13.688  36.752  0.00  0.00    +0.367 C 
ATOM      8  OD2 ASP A   1      54.225  13.124  36.545  0.00  0.00    -0.246 OA
ATOM      9  OD1 ASP A   1      56.416  13.133  36.490  0.00  0.00    -0.246 OA
ENDBRANCH   6   7
ENDBRANCH   1   6
TORSDOF 4
REMARK  Name = ../refined-set-2016/1x8r/1x8r_pocket.pdb
REMARK  256 active torsions:
REMARK  status: ('A' for Active; 'I' for Inactive)
REMARK    1  A    between atoms: _1  and  _3
REMARK    2  A    between atoms: _3  and  _4
REMARK    3  A    between atoms: _3  and  _6
REMARK    4  A    between atoms: _6  and  _7
REMARK    5  A    between atoms: _9  and  _11
REMARK    6  A    between atoms: _11  and  _12
REMARK    7  A    between atoms: _11  and  _14
REMARK    8  A    between atoms: _14  and  _15
REMARK    9  A    between atoms: _15  and  _16
REMARK   10  A    between atoms: _16  and  _17
REMARK   11  A    between atoms: _17  and  _18
REMARK   12  A    between atoms: _22  and  _24
REMARK   13  A    between atoms: _24  and  _25
REMARK   14  A    between atoms: _24  and  _27
REMARK   15  A    between atoms: _27  and  _28
REMARK   16  A    between atoms: _30  and  _32
REMARK   17  A    between atoms: _32  and  _33
REMARK   18  A    between atoms: _32  and  _35
REMARK   19  A    between atoms: _38  and  _40
REMARK   20  A    between atoms: _40  and  _41
REMARK   21  A    between atoms: _40  and  _43
REMARK   22  A    between atoms: _43  and  _44
REMARK   23  A    between atoms: _46  and  _48
REMARK   24  A    between atoms: _48  and  _49
REMARK   25  A    between atoms: _48  and  _51
REMARK   26  A    between atoms: _51  and  _52
REMARK   27  A    between atoms: _57  and  _59
REMARK   28  A    between atoms: _59  and  _60
REMARK   29  A    between atoms: _59  and  _62
REMARK   30  A    between atoms: _62  and  _63
REMARK   31  A    between atoms: _63  and  _64
REMARK   32  A    between atoms: _64  and  _65
REMARK   33  A    between atoms: _74  and  _76
REMARK   34  A    between atoms: _76  and  _77
REMARK   35  A    between atoms: _76  and  _79
REMARK   36  A    between atoms: _79  and  _80
REMARK   37  A    between atoms: _83  and  _85
REMARK   38  A    between atoms: _85  and  _86
REMARK   39  A    between atoms: _85  and  _88
REMARK   40  A    between atoms: _88  and  _89
REMARK   41  A    between atoms: _94  and  _96
REMARK   42  A    between atoms: _96  and  _97
REMARK   43  A    between atoms: _100  and  _102
REMARK   44  A    between atoms: _102  and  _103
REMARK   45  A    between atoms: _105  and  _107
REMARK   46  A    between atoms: _107  and  _108
REMARK   47  A    between atoms: _107  and  _110
REMARK   48  A    between atoms: _110  and  _111
REMARK   49  A    between atoms: _114  and  _116
REMARK   50  A    between atoms: _116  and  _117
REMARK   51  A    between atoms: _120  and  _122
REMARK   52  A    between atoms: _122  and  _123
REMARK   53  A    between atoms: _122  and  _125
REMARK   54  A    between atoms: _125  and  _126
REMARK   55  A    between atoms: _126  and  _127
REMARK   56  A    between atoms: _129  and  _131
REMARK   57  A    between atoms: _131  and  _132
REMARK   58  A    between atoms: _131  and  _134
REMARK   59  A    between atoms: _134  and  _135
REMARK   60  A    between atoms: _135  and  _136
REMARK   61  A    between atoms: _136  and  _137
REMARK   62  A    between atoms: _147  and  _148
REMARK   63  A    between atoms: _153  and  _155
REMARK   64  A    between atoms: _155  and  _156
REMARK   65  A    between atoms: _155  and  _158
REMARK   66  A    between atoms: _158  and  _159
REMARK   67  A    between atoms: _159  and  _160
REMARK   68  A    between atoms: _162  and  _164
REMARK   69  A    between atoms: _164  and  _165
REMARK   70  A    between atoms: _164  and  _167
REMARK   71  A    between atoms: _167  and  _168
REMARK   72  A    between atoms: _168  and  _169
REMARK   73  A    between atoms: _169  and  _170
REMARK   74  A    between atoms: _180  and  _181
REMARK   75  A    between atoms: _186  and  _188
REMARK   76  A    between atoms: _188  and  _189
REMARK   77  A    between atoms: _191  and  _193
REMARK   78  A    between atoms: _193  and  _194
REMARK   79  A    between atoms: _193  and  _196
REMARK   80  A    between atoms: _196  and  _197
REMARK   81  A    between atoms: _199  and  _201
REMARK   82  A    between atoms: _201  and  _202
REMARK   83  A    between atoms: _201  and  _204
REMARK   84  A    between atoms: _207  and  _209
REMARK   85  A    between atoms: _209  and  _210
REMARK   86  A    between atoms: _209  and  _212
REMARK   87  A    between atoms: _212  and  _213
REMARK   88  A    between atoms: _215  and  _217
REMARK   89  A    between atoms: _217  and  _218
REMARK   90  A    between atoms: _217  and  _220
REMARK   91  A    between atoms: _220  and  _221
REMARK   92  A    between atoms: _223  and  _225
REMARK   93  A    between atoms: _225  and  _226
REMARK   94  A    between atoms: _225  and  _228
REMARK   95  A    between atoms: _228  and  _229
REMARK   96  A    between atoms: _229  and  _230
REMARK   97  A    between atoms: _235  and  _237
REMARK   98  A    between atoms: _237  and  _238
REMARK   99  A    between atoms: _237  and  _240
REMARK  100  A    between atoms: _240  and  _241
REMARK  101  A    between atoms: _247  and  _249
REMARK  102  A    between atoms: _249  and  _250
REMARK  103  A    between atoms: _249  and  _252
REMARK  104  A    between atoms: _252  and  _253
REMARK  105  A    between atoms: _256  and  _258
REMARK  106  A    between atoms: _258  and  _259
REMARK  107  A    between atoms: _258  and  _261
REMARK  108  A    between atoms: _261  and  _262
REMARK  109  A    between atoms: _265  and  _267
REMARK  110  A    between atoms: _267  and  _268
REMARK  111  A    between atoms: _271  and  _273
REMARK  112  A    between atoms: _273  and  _274
REMARK  113  A    between atoms: _273  and  _276
REMARK  114  A    between atoms: _276  and  _277
REMARK  115  A    between atoms: _277  and  _278
REMARK  116  A    between atoms: _280  and  _282
REMARK  117  A    between atoms: _282  and  _283
REMARK  118  A    between atoms: _282  and  _285
REMARK  119  A    between atoms: _285  and  _286
REMARK  120  A    between atoms: _289  and  _291
REMARK  121  A    between atoms: _291  and  _292
REMARK  122  A    between atoms: _291  and  _294
REMARK  123  A    between atoms: _297  and  _299
REMARK  124  A    between atoms: _299  and  _300
REMARK  125  A    between atoms: _299  and  _302
REMARK  126  A    between atoms: _302  and  _303
REMARK  127  A    between atoms: _305  and  _307
REMARK  128  A    between atoms: _307  and  _308
REMARK  129  A    between atoms: _307  and  _310
REMARK  130  A    between atoms: _310  and  _311
REMARK  131  A    between atoms: _311  and  _312
REMARK  132  A    between atoms: _312  and  _313
REMARK  133  A    between atoms: _313  and  _314
REMARK  134  A    between atoms: _319  and  _320
REMARK  135  A    between atoms: _325  and  _327
REMARK  136  A    between atoms: _327  and  _328
REMARK  137  A    between atoms: _327  and  _330
REMARK  138  A    between atoms: _330  and  _331
REMARK  139  A    between atoms: _336  and  _337
REMARK  140  A    between atoms: _339  and  _341
REMARK  141  A    between atoms: _341  and  _342
REMARK  142  A    between atoms: _341  and  _344
REMARK  143  A    between atoms: _344  and  _345
REMARK  144  A    between atoms: _348  and  _350
REMARK  145  A    between atoms: _350  and  _351
REMARK  146  A    between atoms: _350  and  _353
REMARK  147  A    between atoms: _353  and  _354
REMARK  148  A    between atoms: _357  and  _359
REMARK  149  A    between atoms: _359  and  _360
REMARK  150  A    between atoms: _359  and  _362
REMARK  151  A    between atoms: _362  and  _363
REMARK  152  A    between atoms: _366  and  _368
REMARK  153  A    between atoms: _368  and  _369
REMARK  154  A    between atoms: _368  and  _371
REMARK  155  A    between atoms: _371  and  _372
REMARK  156  A    between atoms: _375  and  _377
REMARK  157  A    between atoms: _377  and  _378
REMARK  158  A    between atoms: _377  and  _380
REMARK  159  A    between atoms: _380  and  _381
REMARK  160  A    between atoms: _383  and  _385
REMARK  161  A    between atoms: _385  and  _386
REMARK  162  A    between atoms: _385  and  _388
REMARK  163  A    between atoms: _388  and  _389
REMARK  164  A    between atoms: _394  and  _395
REMARK  165  A    between atoms: _397  and  _399
REMARK  166  A    between atoms: _399  and  _400
REMARK  167  A    between atoms: _399  and  _402
REMARK  168  A    between atoms: _402  and  _403
REMARK  169  A    between atoms: _406  and  _408
REMARK  170  A    between atoms: _408  and  _409
REMARK  171  A    between atoms: _408  and  _411
REMARK  172  A    between atoms: _411  and  _412
REMARK  173  A    between atoms: _417  and  _419
REMARK  174  A    between atoms: _419  and  _420
REMARK  175  A    between atoms: _419  and  _422
REMARK  176  A    between atoms: _422  and  _423
REMARK  177  A    between atoms: _427  and  _428
REMARK  178  A    between atoms: _433  and  _435
REMARK  179  A    between atoms: _435  and  _436
REMARK  180  A    between atoms: _435  and  _438
REMARK  181  A    between atoms: _438  and  _439
REMARK  182  A    between atoms: _442  and  _444
REMARK  183  A    between atoms: _444  and  _445
REMARK  184  A    between atoms: _448  and  _450
REMARK  185  A    between atoms: _450  and  _451
REMARK  186  A    between atoms: _450  and  _453
REMARK  187  A    between atoms: _453  and  _454
REMARK  188  A    between atoms: _454  and  _455
REMARK  189  A    between atoms: _457  and  _459
REMARK  190  A    between atoms: _459  and  _460
REMARK  191  A    between atoms: _459  and  _462
REMARK  192  A    between atoms: _462  and  _463
REMARK  193  A    between atoms: _468  and  _470
REMARK  194  A    between atoms: _470  and  _471
REMARK  195  A    between atoms: _470  and  _473
REMARK  196  A    between atoms: _473  and  _474
REMARK  197  A    between atoms: _484  and  _486
REMARK  198  A    between atoms: _486  and  _487
REMARK  199  A    between atoms: _486  and  _489
REMARK  200  A    between atoms: _492  and  _494
REMARK  201  A    between atoms: _494  and  _495
REMARK  202  A    between atoms: _494  and  _497
REMARK  203  A    between atoms: _497  and  _498
REMARK  204  A    between atoms: _498  and  _499
REMARK  205  A    between atoms: _499  and  _500
REMARK  206  A    between atoms: _500  and  _501
REMARK  207  A    between atoms: _505  and  _507
REMARK  208  A    between atoms: _507  and  _508
REMARK  209  A    between atoms: _507  and  _510
REMARK  210  A    between atoms: _510  and  _511
REMARK  211  A    between atoms: _511  and  _512
REMARK  212  A    between atoms: _515  and  _517
REMARK  213  A    between atoms: _517  and  _518
REMARK  214  A    between atoms: _517  and  _520
REMARK  215  A    between atoms: _520  and  _521
REMARK  216  A    between atoms: _524  and  _526
REMARK  217  A    between atoms: _526  and  _527
REMARK  218  A    between atoms: _526  and  _529
REMARK  219  A    between atoms: _529  and  _530
REMARK  220  A    between atoms: _530  and  _531
REMARK  221  A    between atoms: _531  and  _532
REMARK  222  A    between atoms: _541  and  _543
REMARK  223  A    between atoms: _543  and  _544
REMARK  224  A    between atoms: _543  and  _546
REMARK  225  A    between atoms: _546  and  _547
REMARK  226  A    between atoms: _550  and  _552
REMARK  227  A    between atoms: _552  and  _553
REMARK  228  A    between atoms: _552  and  _555
REMARK  229  A    between atoms: _555  and  _556
REMARK  230  A    between atoms: _561  and  _563
REMARK  231  A    between atoms: _563  and  _564
REMARK  232  A    between atoms: _563  and  _566
REMARK  233  A    between atoms: _566  and  _567
REMARK  234  A    between atoms: _567  and  _568
REMARK  235  A    between atoms: _568  and  _569
REMARK  236  A    between atoms: _578  and  _580
REMARK  237  A    between atoms: _580  and  _581
REMARK  238  A    between atoms: _580  and  _583
REMARK  239  A    between atoms: _583  and  _584
REMARK  240  A    between atoms: _584  and  _585
REMARK  241  A    between atoms: _587  and  _589
REMARK  242  A    between atoms: _589  and  _590
REMARK  243  A    between atoms: _589  and  _592
REMARK  244  A    between atoms: _592  and  _593
REMARK  245  A    between atoms: _593  and  _594
REMARK  246  A    between atoms: _596  and  _598
REMARK  247  A    between atoms: _598  and  _599
REMARK  248  A    between atoms: _598  and  _601
REMARK  249  A    between atoms: _601  and  _602
REMARK  250  A    between atoms: _602  and  _603
REMARK  251  A    between atoms: _603  and  _604
REMARK  252  A    between atoms: _604  and  _605
REMARK  253  A    between atoms: _609  and  _611
REMARK  254  A    between atoms: _611  and  _612
REMARK  255  A    between atoms: _611  and  _614
REMARK  256  A    between atoms: _614  and  _615
REMARK                            x       y       z     vdW  Elec       q    Type
REMARK                         _______ _______ _______ _____ _____    ______ ____
ROOT
ATOM      1  CB  ASN A   1      46.833   6.134  34.664  0.00  0.00    +0.110 C 
ENDROOT
BRANCH   1   2
ATOM      2  CG  ASN A   1      47.012   5.903  33.190  0.00  0.00    +0.221 C 
ATOM      3  ND2 ASN A   1      47.510   4.729  32.838  0.00  0.00    -0.329 N 
ATOM      4 HD21 ASN A   1      47.745   4.024  33.566  0.00  0.00    +0.145 HD
ATOM      5 HD22 ASN A   1      47.667   4.511  31.833  0.00  0.00    +0.145 HD
ATOM      6  OD1 ASN A   1      46.715   6.778  32.366  0.00  0.00    -0.275 OA
ENDBRANCH   1   2
BRANCH   1   7
ATOM      7  CA  ASN A   1      48.126   6.577  35.343  0.00  0.00    +0.142 C 
BRANCH   7   8
ATOM      8  N   ASN A   1      48.026   6.353  36.783  0.00  0.00    -0.239 NA
ATOM      9  H   ASN A   1      47.145   5.978  37.188  0.00  0.00    +0.142 HD
ENDBRANCH   7   8
BRANCH   7  10
ATOM     10  C   ASN A   1      48.422   8.017  34.958  0.00  0.00    +0.225 C 
ATOM     11  O   ASN A   1      48.998   8.274  33.895  0.00  0.00    -0.287 OA
ENDBRANCH   7  10
ENDBRANCH   1   7
TORSDOF 4
REMARK  Name = ../refined-set-2016/1x8r/1x8r_pocket.pdb
REMARK  256 active torsions:
REMARK  status: ('A' for Active; 'I' for Inactive)
REMARK    1  A    between atoms: _1  and  _3
REMARK    2  A    between atoms: _3  and  _4
REMARK    3  A    between atoms: _3  and  _6
REMARK    4  A    between atoms: _6  and  _7
REMARK    5  A    between atoms: _9  and  _11
REMARK    6  A    between atoms: _11  and  _12
REMARK    7  A    between atoms: _11  and  _14
REMARK    8  A    between atoms: _14  and  _15
REMARK    9  A    between atoms: _15  and  _16
REMARK   10  A    between atoms: _16  and  _17
REMARK   11  A    between atoms: _17  and  _18
REMARK   12  A    between atoms: _22  and  _24
REMARK   13  A    between atoms: _24  and  _25
REMARK   14  A    between atoms: _24  and  _27
REMARK   15  A    between atoms: _27  and  _28
REMARK   16  A    between atoms: _30  and  _32
REMARK   17  A    between atoms: _32  and  _33
REMARK   18  A    between atoms: _32  and  _35
REMARK   19  A    between atoms: _38  and  _40
REMARK   20  A    between atoms: _40  and  _41
REMARK   21  A    between atoms: _40  and  _43
REMARK   22  A    between atoms: _43  and  _44
REMARK   23  A    between atoms: _46  and  _48
REMARK   24  A    between atoms: _48  and  _49
REMARK   25  A    between atoms: _48  and  _51
REMARK   26  A    between atoms: _51  and  _52
REMARK   27  A    between atoms: _57  and  _59
REMARK   28  A    between atoms: _59  and  _60
REMARK   29  A    between atoms: _59  and  _62
REMARK   30  A    between atoms: _62  and  _63
REMARK   31  A    between atoms: _63  and  _64
REMARK   32  A    between atoms: _64  and  _65
REMARK   33  A    between atoms: _74  and  _76
REMARK   34  A    between atoms: _76  and  _77
REMARK   35  A    between atoms: _76  and  _79
REMARK   36  A    between atoms: _79  and  _80
REMARK   37  A    between atoms: _83  and  _85
REMARK   38  A    between atoms: _85  and  _86
REMARK   39  A    between atoms: _85  and  _88
REMARK   40  A    between atoms: _88  and  _89
REMARK   41  A    between atoms: _94  and  _96
REMARK   42  A    between atoms: _96  and  _97
REMARK   43  A    between atoms: _100  and  _102
REMARK   44  A    between atoms: _102  and  _103
REMARK   45  A    between atoms: _105  and  _107
REMARK   46  A    between atoms: _107  and  _108
REMARK   47  A    between atoms: _107  and  _110
REMARK   48  A    between atoms: _110  and  _111
REMARK   49  A    between atoms: _114  and  _116
REMARK   50  A    between atoms: _116  and  _117
REMARK   51  A    between atoms: _120  and  _122
REMARK   52  A    between atoms: _122  and  _123
REMARK   53  A    between atoms: _122  and  _125
REMARK   54  A    between atoms: _125  and  _126
REMARK   55  A    between atoms: _126  and  _127
REMARK   56  A    between atoms: _129  and  _131
REMARK   57  A    between atoms: _131  and  _132
REMARK   58  A    between atoms: _131  and  _134
REMARK   59  A    between atoms: _134  and  _135
REMARK   60  A    between atoms: _135  and  _136
REMARK   61  A    between atoms: _136  and  _137
REMARK   62  A    between atoms: _147  and  _148
REMARK   63  A    between atoms: _153  and  _155
REMARK   64  A    between atoms: _155  and  _156
REMARK   65  A    between atoms: _155  and  _158
REMARK   66  A    between atoms: _158  and  _159
REMARK   67  A    between atoms: _159  and  _160
REMARK   68  A    between atoms: _162  and  _164
REMARK   69  A    between atoms: _164  and  _165
REMARK   70  A    between atoms: _164  and  _167
REMARK   71  A    between atoms: _167  and  _168
REMARK   72  A    between atoms: _168  and  _169
REMARK   73  A    between atoms: _169  and  _170
REMARK   74  A    between atoms: _180  and  _181
REMARK   75  A    between atoms: _186  and  _188
REMARK   76  A    between atoms: _188  and  _189
REMARK   77  A    between atoms: _191  and  _193
REMARK   78  A    between atoms: _193  and  _194
REMARK   79  A    between atoms: _193  and  _196
REMARK   80  A    between atoms: _196  and  _197
REMARK   81  A    between atoms: _199  and  _201
REMARK   82  A    between atoms: _201  and  _202
REMARK   83  A    between atoms: _201  and  _204
REMARK   84  A    between atoms: _207  and  _209
REMARK   85  A    between atoms: _209  and  _210
REMARK   86  A    between atoms: _209  and  _212
REMARK   87  A    between atoms: _212  and  _213
REMARK   88  A    between atoms: _215  and  _217
REMARK   89  A    between atoms: _217  and  _218
REMARK   90  A    between atoms: _217  and  _220
REMARK   91  A    between atoms: _220  and  _221
REMARK   92  A    between atoms: _223  and  _225
REMARK   93  A    between atoms: _225  and  _226
REMARK   94  A    between atoms: _225  and  _228
REMARK   95  A    between atoms: _228  and  _229
REMARK   96  A    between atoms: _229  and  _230
REMARK   97  A    between atoms: _235  and  _237
REMARK   98  A    between atoms: _237  and  _238
REMARK   99  A    between atoms: _237  and  _240
REMARK  100  A    between atoms: _240  and  _241
REMARK  101  A    between atoms: _247  and  _249
REMARK  102  A    between atoms: _249  and  _250
REMARK  103  A    between atoms: _249  and  _252
REMARK  104  A    between atoms: _252  and  _253
REMARK  105  A    between atoms: _256  and  _258
REMARK  106  A    between atoms: _258  and  _259
REMARK  107  A    between atoms: _258  and  _261
REMARK  108  A    between atoms: _261  and  _262
REMARK  109  A    between atoms: _265  and  _267
REMARK  110  A    between atoms: _267  and  _268
REMARK  111  A    between atoms: _271  and  _273
REMARK  112  A    between atoms: _273  and  _274
REMARK  113  A    between atoms: _273  and  _276
REMARK  114  A    between atoms: _276  and  _277
REMARK  115  A    between atoms: _277  and  _278
REMARK  116  A    between atoms: _280  and  _282
REMARK  117  A    between atoms: _282  and  _283
REMARK  118  A    between atoms: _282  and  _285
REMARK  119  A    between atoms: _285  and  _286
REMARK  120  A    between atoms: _289  and  _291
REMARK  121  A    between atoms: _291  and  _292
REMARK  122  A    between atoms: _291  and  _294
REMARK  123  A    between atoms: _297  and  _299
REMARK  124  A    between atoms: _299  and  _300
REMARK  125  A    between atoms: _299  and  _302
REMARK  126  A    between atoms: _302  and  _303
REMARK  127  A    between atoms: _305  and  _307
REMARK  128  A    between atoms: _307  and  _308
REMARK  129  A    between atoms: _307  and  _310
REMARK  130  A    between atoms: _310  and  _311
REMARK  131  A    between atoms: _311  and  _312
REMARK  132  A    between atoms: _312  and  _313
REMARK  133  A    between atoms: _313  and  _314
REMARK  134  A    between atoms: _319  and  _320
REMARK  135  A    between atoms: _325  and  _327
REMARK  136  A    between atoms: _327  and  _328
REMARK  137  A    between atoms: _327  and  _330
REMARK  138  A    between atoms: _330  and  _331
REMARK  139  A    between atoms: _336  and  _337
REMARK  140  A    between atoms: _339  and  _341
REMARK  141  A    between atoms: _341  and  _342
REMARK  142  A    between atoms: _341  and  _344
REMARK  143  A    between atoms: _344  and  _345
REMARK  144  A    between atoms: _348  and  _350
REMARK  145  A    between atoms: _350  and  _351
REMARK  146  A    between atoms: _350  and  _353
REMARK  147  A    between atoms: _353  and  _354
REMARK  148  A    between atoms: _357  and  _359
REMARK  149  A    between atoms: _359  and  _360
REMARK  150  A    between atoms: _359  and  _362
REMARK  151  A    between atoms: _362  and  _363
REMARK  152  A    between atoms: _366  and  _368
REMARK  153  A    between atoms: _368  and  _369
REMARK  154  A    between atoms: _368  and  _371
REMARK  155  A    between atoms: _371  and  _372
REMARK  156  A    between atoms: _375  and  _377
REMARK  157  A    between atoms: _377  and  _378
REMARK  158  A    between atoms: _377  and  _380
REMARK  159  A    between atoms: _380  and  _381
REMARK  160  A    between atoms: _383  and  _385
REMARK  161  A    between atoms: _385  and  _386
REMARK  162  A    between atoms: _385  and  _388
REMARK  163  A    between atoms: _388  and  _389
REMARK  164  A    between atoms: _394  and  _395
REMARK  165  A    between atoms: _397  and  _399
REMARK  166  A    between atoms: _399  and  _400
REMARK  167  A    between atoms: _399  and  _402
REMARK  168  A    between atoms: _402  and  _403
REMARK  169  A    between atoms: _406  and  _408
REMARK  170  A    between atoms: _408  and  _409
REMARK  171  A    between atoms: _408  and  _411
REMARK  172  A    between atoms: _411  and  _412
REMARK  173  A    between atoms: _417  and  _419
REMARK  174  A    between atoms: _419  and  _420
REMARK  175  A    between atoms: _419  and  _422
REMARK  176  A    between atoms: _422  and  _423
REMARK  177  A    between atoms: _427  and  _428
REMARK  178  A    between atoms: _433  and  _435
REMARK  179  A    between atoms: _435  and  _436
REMARK  180  A    between atoms: _435  and  _438
REMARK  181  A    between atoms: _438  and  _439
REMARK  182  A    between atoms: _442  and  _444
REMARK  183  A    between atoms: _444  and  _445
REMARK  184  A    between atoms: _448  and  _450
REMARK  185  A    between atoms: _450  and  _451
REMARK  186  A    between atoms: _450  and  _453
REMARK  187  A    between atoms: _453  and  _454
REMARK  188  A    between atoms: _454  and  _455
REMARK  189  A    between atoms: _457  and  _459
REMARK  190  A    between atoms: _459  and  _460
REMARK  191  A    between atoms: _459  and  _462
REMARK  192  A    between atoms: _462  and  _463
REMARK  193  A    between atoms: _468  and  _470
REMARK  194  A    between atoms: _470  and  _471
REMARK  195  A    between atoms: _470  and  _473
REMARK  196  A    between atoms: _473  and  _474
REMARK  197  A    between atoms: _484  and  _486
REMARK  198  A    between atoms: _486  and  _487
REMARK  199  A    between atoms: _486  and  _489
REMARK  200  A    between atoms: _492  and  _494
REMARK  201  A    between atoms: _494  and  _495
REMARK  202  A    between atoms: _494  and  _497
REMARK  203  A    between atoms: _497  and  _498
REMARK  204  A    between atoms: _498  and  _499
REMARK  205  A    between atoms: _499  and  _500
REMARK  206  A    between atoms: _500  and  _501
REMARK  207  A    between atoms: _505  and  _507
REMARK  208  A    between atoms: _507  and  _508
REMARK  209  A    between atoms: _507  and  _510
REMARK  210  A    between atoms: _510  and  _511
REMARK  211  A    between atoms: _511  and  _512
REMARK  212  A    between atoms: _515  and  _517
REMARK  213  A    between atoms: _517  and  _518
REMARK  214  A    between atoms: _517  and  _520
REMARK  215  A    between atoms: _520  and  _521
REMARK  216  A    between atoms: _524  and  _526
REMARK  217  A    between atoms: _526  and  _527
REMARK  218  A    between atoms: _526  and  _529
REMARK  219  A    between atoms: _529  and  _530
REMARK  220  A    between atoms: _530  and  _531
REMARK  221  A    between atoms: _531  and  _532
REMARK  222  A    between atoms: _541  and  _543
REMARK  223  A    between atoms: _543  and  _544
REMARK  224  A    between atoms: _543  and  _546
REMARK  225  A    between atoms: _546  and  _547
REMARK  226  A    between atoms: _550  and  _552
REMARK  227  A    between atoms: _552  and  _553
REMARK  228  A    between atoms: _552  and  _555
REMARK  229  A    between atoms: _555  and  _556
REMARK  230  A    between atoms: _561  and  _563
REMARK  231  A    between atoms: _563  and  _564
REMARK  232  A    between atoms: _563  and  _566
REMARK  233  A    between atoms: _566  and  _567
REMARK  234  A    between atoms: _567  and  _568
REMARK  235  A    between atoms: _568  and  _569
REMARK  236  A    between atoms: _578  and  _580
REMARK  237  A    between atoms: _580  and  _581
REMARK  238  A    between atoms: _580  and  _583
REMARK  239  A    between atoms: _583  and  _584
REMARK  240  A    between atoms: _584  and  _585
REMARK  241  A    between atoms: _587  and  _589
REMARK  242  A    between atoms: _589  and  _590
REMARK  243  A    between atoms: _589  and  _592
REMARK  244  A    between atoms: _592  and  _593
REMARK  245  A    between atoms: _593  and  _594
REMARK  246  A    between atoms: _596  and  _598
REMARK  247  A    between atoms: _598  and  _599
REMARK  248  A    between atoms: _598  and  _601
REMARK  249  A    between atoms: _601  and  _602
REMARK  250  A    between atoms: _602  and  _603
REMARK  251  A    between atoms: _603  and  _604
REMARK  252  A    between atoms: _604  and  _605
REMARK  253  A    between atoms: _609  and  _611
REMARK  254  A    between atoms: _611  and  _612
REMARK  255  A    between atoms: _611  and  _614
REMARK  256  A    between atoms: _614  and  _615
REMARK                            x       y       z     vdW  Elec       q    Type
REMARK                         _______ _______ _______ _____ _____    ______ ____
ROOT
ATOM      1  C   PRO A   2      54.935   7.360  35.781  0.00  0.00    +0.241 C 
ATOM      2  O   PRO A   2      55.399   6.406  36.387  0.00  0.00    -0.273 OA
ATOM      3  N   ASP A   3      55.642   8.436  35.454  0.00  0.00    -0.297 N 
ATOM      4  H   ASP A   3      55.170   9.232  34.980  0.00  0.00    +0.150 HD
ENDROOT
BRANCH   1   8
ATOM      5  C   ILE A   1      52.644   9.176  36.756  0.00  0.00    +0.241 C 
ATOM      6  O   ILE A   1      53.320   8.783  37.708  0.00  0.00    -0.273 OA
ATOM      7  N   PRO A   2      52.685   8.565  35.569  0.00  0.00    -0.272 N 
ATOM      8  CA  PRO A   2      53.463   7.338  35.410  0.00  0.00    +0.152 C 
ATOM      9  CB  PRO A   2      53.226   6.957  33.950  0.00  0.00    +0.031 C 
ATOM     10  CG  PRO A   2      53.053   8.277  33.273  0.00  0.00    +0.024 C 
ATOM     11  CD  PRO A   2      52.178   9.045  34.267  0.00  0.00    +0.094 C 
BRANCH   5  12
ATOM     12  CA  ILE A   1      51.783  10.437  36.858  0.00  0.00    +0.145 C 
BRANCH  12  13
ATOM     13  N   ILE A   1      50.396  10.064  36.546  0.00  0.00    -0.238 NA
ATOM     14  H   ILE A   1      50.013   9.166  36.906  0.00  0.00    +0.142 HD
ENDBRANCH  12  13
BRANCH  12  15
ATOM     15  CB  ILE A   1      51.919  11.028  38.294  0.00  0.00    +0.025 C 
ATOM     16  CG2 ILE A   1      51.355  12.425  38.341  0.00  0.00    +0.002 C 
BRANCH  15  17
ATOM     17  CG1 ILE A   1      51.237  10.125  39.321  0.00  0.00    +0.002 C 
ATOM     18  CD1 ILE A   1      51.509  10.555  40.759  0.00  0.00    +0.000 C 
ENDBRANCH  15  17
ENDBRANCH  12  15
ENDBRANCH   5  12
ENDBRANCH   1   8
BRANCH   3  19
ATOM     19  CA  ASP A   3      57.079   8.523  35.750  0.00  0.00    +0.160 C 
BRANCH  19  20
ATOM     20  C   ASP A   3      57.343   8.837  37.215  0.00  0.00    +0.241 C 
ATOM     21  O   ASP A   3      58.150   8.157  37.882  0.00  0.00    -0.273 OA
ATOM     22  N   ALA A   4      56.680   9.867  37.724  0.00  0.00    -0.298 N 
ATOM     23  H   ALA A   4      56.031  10.417  37.126  0.00  0.00    +0.150 HD
BRANCH  22  24
ATOM     24  CA  ALA A   4      56.864  10.226  39.124  0.00  0.00    +0.137 C 
ATOM     25  CB  ALA A   4      56.117  11.548  39.450  0.00  0.00    +0.030 C 
BRANCH  24  26
ATOM     26  C   ALA A   4      56.384   9.083  40.020  0.00  0.00    +0.227 C 
ATOM     27  O   ALA A   4      56.832   8.923  41.154  0.00  0.00    -0.286 OA
ENDBRANCH  24  26
ENDBRANCH  22  24
ENDBRANCH  19  20
BRANCH  19  28
ATOM     28  CB  ASP A   3      57.738   9.610  34.898  0.00  0.00    +0.143 C 
BRANCH  28  29
ATOM     29  CG  ASP A   3      58.010   9.173  33.475  0.00  0.00    +0.367 C 
ATOM     30  OD2 ASP A   3      57.913   7.969  33.158  0.00  0.00    -0.246 OA
ATOM     31  OD1 ASP A   3      58.344  10.060  32.658  0.00  0.00    -0.246 OA
ENDBRANCH  28  29
ENDBRANCH  19  28
ENDBRANCH   3  19
TORSDOF 11
REMARK  Name = ../refined-set-2016/1x8r/1x8r_pocket.pdb
REMARK  256 active torsions:
REMARK  status: ('A' for Active; 'I' for Inactive)
REMARK    1  A    between atoms: _1  and  _3
REMARK    2  A    between atoms: _3  and  _4
REMARK    3  A    between atoms: _3  and  _6
REMARK    4  A    between atoms: _6  and  _7
REMARK    5  A    between atoms: _9  and  _11
REMARK    6  A    between atoms: _11  and  _12
REMARK    7  A    between atoms: _11  and  _14
REMARK    8  A    between atoms: _14  and  _15
REMARK    9  A    between atoms: _15  and  _16
REMARK   10  A    between atoms: _16  and  _17
REMARK   11  A    between atoms: _17  and  _18
REMARK   12  A    between atoms: _22  and  _24
REMARK   13  A    between atoms: _24  and  _25
REMARK   14  A    between atoms: _24  and  _27
REMARK   15  A    between atoms: _27  and  _28
REMARK   16  A    between atoms: _30  and  _32
REMARK   17  A    between atoms: _32  and  _33
REMARK   18  A    between atoms: _32  and  _35
REMARK   19  A    between atoms: _38  and  _40
REMARK   20  A    between atoms: _40  and  _41
REMARK   21  A    between atoms: _40  and  _43
REMARK   22  A    between atoms: _43  and  _44
REMARK   23  A    between atoms: _46  and  _48
REMARK   24  A    between atoms: _48  and  _49
REMARK   25  A    between atoms: _48  and  _51
REMARK   26  A    between atoms: _51  and  _52
REMARK   27  A    between atoms: _57  and  _59
REMARK   28  A    between atoms: _59  and  _60
REMARK   29  A    between atoms: _59  and  _62
REMARK   30  A    between atoms: _62  and  _63
REMARK   31  A    between atoms: _63  and  _64
REMARK   32  A    between atoms: _64  and  _65
REMARK   33  A    between atoms: _74  and  _76
REMARK   34  A    between atoms: _76  and  _77
REMARK   35  A    between atoms: _76  and  _79
REMARK   36  A    between atoms: _79  and  _80
REMARK   37  A    between atoms: _83  and  _85
REMARK   38  A    between atoms: _85  and  _86
REMARK   39  A    between atoms: _85  and  _88
REMARK   40  A    between atoms: _88  and  _89
REMARK   41  A    between atoms: _94  and  _96
REMARK   42  A    between atoms: _96  and  _97
REMARK   43  A    between atoms: _100  and  _102
REMARK   44  A    between atoms: _102  and  _103
REMARK   45  A    between atoms: _105  and  _107
REMARK   46  A    between atoms: _107  and  _108
REMARK   47  A    between atoms: _107  and  _110
REMARK   48  A    between atoms: _110  and  _111
REMARK   49  A    between atoms: _114  and  _116
REMARK   50  A    between atoms: _116  and  _117
REMARK   51  A    between atoms: _120  and  _122
REMARK   52  A    between atoms: _122  and  _123
REMARK   53  A    between atoms: _122  and  _125
REMARK   54  A    between atoms: _125  and  _126
REMARK   55  A    between atoms: _126  and  _127
REMARK   56  A    between atoms: _129  and  _131
REMARK   57  A    between atoms: _131  and  _132
REMARK   58  A    between atoms: _131  and  _134
REMARK   59  A    between atoms: _134  and  _135
REMARK   60  A    between atoms: _135  and  _136
REMARK   61  A    between atoms: _136  and  _137
REMARK   62  A    between atoms: _147  and  _148
REMARK   63  A    between atoms: _153  and  _155
REMARK   64  A    between atoms: _155  and  _156
REMARK   65  A    between atoms: _155  and  _158
REMARK   66  A    between atoms: _158  and  _159
REMARK   67  A    between atoms: _159  and  _160
REMARK   68  A    between atoms: _162  and  _164
REMARK   69  A    between atoms: _164  and  _165
REMARK   70  A    between atoms: _164  and  _167
REMARK   71  A    between atoms: _167  and  _168
REMARK   72  A    between atoms: _168  and  _169
REMARK   73  A    between atoms: _169  and  _170
REMARK   74  A    between atoms: _180  and  _181
REMARK   75  A    between atoms: _186  and  _188
REMARK   76  A    between atoms: _188  and  _189
REMARK   77  A    between atoms: _191  and  _193
REMARK   78  A    between atoms: _193  and  _194
REMARK   79  A    between atoms: _193  and  _196
REMARK   80  A    between atoms: _196  and  _197
REMARK   81  A    between atoms: _199  and  _201
REMARK   82  A    between atoms: _201  and  _202
REMARK   83  A    between atoms: _201  and  _204
REMARK   84  A    between atoms: _207  and  _209
REMARK   85  A    between atoms: _209  and  _210
REMARK   86  A    between atoms: _209  and  _212
REMARK   87  A    between atoms: _212  and  _213
REMARK   88  A    between atoms: _215  and  _217
REMARK   89  A    between atoms: _217  and  _218
REMARK   90  A    between atoms: _217  and  _220
REMARK   91  A    between atoms: _220  and  _221
REMARK   92  A    between atoms: _223  and  _225
REMARK   93  A    between atoms: _225  and  _226
REMARK   94  A    between atoms: _225  and  _228
REMARK   95  A    between atoms: _228  and  _229
REMARK   96  A    between atoms: _229  and  _230
REMARK   97  A    between atoms: _235  and  _237
REMARK   98  A    between atoms: _237  and  _238
REMARK   99  A    between atoms: _237  and  _240
REMARK  100  A    between atoms: _240  and  _241
REMARK  101  A    between atoms: _247  and  _249
REMARK  102  A    between atoms: _249  and  _250
REMARK  103  A    between atoms: _249  and  _252
REMARK  104  A    between atoms: _252  and  _253
REMARK  105  A    between atoms: _256  and  _258
REMARK  106  A    between atoms: _258  and  _259
REMARK  107  A    between atoms: _258  and  _261
REMARK  108  A    between atoms: _261  and  _262
REMARK  109  A    between atoms: _265  and  _267
REMARK  110  A    between atoms: _267  and  _268
REMARK  111  A    between atoms: _271  and  _273
REMARK  112  A    between atoms: _273  and  _274
REMARK  113  A    between atoms: _273  and  _276
REMARK  114  A    between atoms: _276  and  _277
REMARK  115  A    between atoms: _277  and  _278
REMARK  116  A    between atoms: _280  and  _282
REMARK  117  A    between atoms: _282  and  _283
REMARK  118  A    between atoms: _282  and  _285
REMARK  119  A    between atoms: _285  and  _286
REMARK  120  A    between atoms: _289  and  _291
REMARK  121  A    between atoms: _291  and  _292
REMARK  122  A    between atoms: _291  and  _294
REMARK  123  A    between atoms: _297  and  _299
REMARK  124  A    between atoms: _299  and  _300
REMARK  125  A    between atoms: _299  and  _302
REMARK  126  A    between atoms: _302  and  _303
REMARK  127  A    between atoms: _305  and  _307
REMARK  128  A    between atoms: _307  and  _308
REMARK  129  A    between atoms: _307  and  _310
REMARK  130  A    between atoms: _310  and  _311
REMARK  131  A    between atoms: _311  and  _312
REMARK  132  A    between atoms: _312  and  _313
REMARK  133  A    between atoms: _313  and  _314
REMARK  134  A    between atoms: _319  and  _320
REMARK  135  A    between atoms: _325  and  _327
REMARK  136  A    between atoms: _327  and  _328
REMARK  137  A    between atoms: _327  and  _330
REMARK  138  A    between atoms: _330  and  _331
REMARK  139  A    between atoms: _336  and  _337
REMARK  140  A    between atoms: _339  and  _341
REMARK  141  A    between atoms: _341  and  _342
REMARK  142  A    between atoms: _341  and  _344
REMARK  143  A    between atoms: _344  and  _345
REMARK  144  A    between atoms: _348  and  _350
REMARK  145  A    between atoms: _350  and  _351
REMARK  146  A    between atoms: _350  and  _353
REMARK  147  A    between atoms: _353  and  _354
REMARK  148  A    between atoms: _357  and  _359
REMARK  149  A    between atoms: _359  and  _360
REMARK  150  A    between atoms: _359  and  _362
REMARK  151  A    between atoms: _362  and  _363
REMARK  152  A    between atoms: _366  and  _368
REMARK  153  A    between atoms: _368  and  _369
REMARK  154  A    between atoms: _368  and  _371
REMARK  155  A    between atoms: _371  and  _372
REMARK  156  A    between atoms: _375  and  _377
REMARK  157  A    between atoms: _377  and  _378
REMARK  158  A    between atoms: _377  and  _380
REMARK  159  A    between atoms: _380  and  _381
REMARK  160  A    between atoms: _383  and  _385
REMARK  161  A    between atoms: _385  and  _386
REMARK  162  A    between atoms: _385  and  _388
REMARK  163  A    between atoms: _388  and  _389
REMARK  164  A    between atoms: _394  and  _395
REMARK  165  A    between atoms: _397  and  _399
REMARK  166  A    between atoms: _399  and  _400
REMARK  167  A    between atoms: _399  and  _402
REMARK  168  A    between atoms: _402  and  _403
REMARK  169  A    between atoms: _406  and  _408
REMARK  170  A    between atoms: _408  and  _409
REMARK  171  A    between atoms: _408  and  _411
REMARK  172  A    between atoms: _411  and  _412
REMARK  173  A    between atoms: _417  and  _419
REMARK  174  A    between atoms: _419  and  _420
REMARK  175  A    between atoms: _419  and  _422
REMARK  176  A    between atoms: _422  and  _423
REMARK  177  A    between atoms: _427  and  _428
REMARK  178  A    between atoms: _433  and  _435
REMARK  179  A    between atoms: _435  and  _436
REMARK  180  A    between atoms: _435  and  _438
REMARK  181  A    between atoms: _438  and  _439
REMARK  182  A    between atoms: _442  and  _444
REMARK  183  A    between atoms: _444  and  _445
REMARK  184  A    between atoms: _448  and  _450
REMARK  185  A    between atoms: _450  and  _451
REMARK  186  A    between atoms: _450  and  _453
REMARK  187  A    between atoms: _453  and  _454
REMARK  188  A    between atoms: _454  and  _455
REMARK  189  A    between atoms: _457  and  _459
REMARK  190  A    between atoms: _459  and  _460
REMARK  191  A    between atoms: _459  and  _462
REMARK  192  A    between atoms: _462  and  _463
REMARK  193  A    between atoms: _468  and  _470
REMARK  194  A    between atoms: _470  and  _471
REMARK  195  A    between atoms: _470  and  _473
REMARK  196  A    between atoms: _473  and  _474
REMARK  197  A    between atoms: _484  and  _486
REMARK  198  A    between atoms: _486  and  _487
REMARK  199  A    between atoms: _486  and  _489
REMARK  200  A    between atoms: _492  and  _494
REMARK  201  A    between atoms: _494  and  _495
REMARK  202  A    between atoms: _494  and  _497
REMARK  203  A    between atoms: _497  and  _498
REMARK  204  A    between atoms: _498  and  _499
REMARK  205  A    between atoms: _499  and  _500
REMARK  206  A    between atoms: _500  and  _501
REMARK  207  A    between atoms: _505  and  _507
REMARK  208  A    between atoms: _507  and  _508
REMARK  209  A    between atoms: _507  and  _510
REMARK  210  A    between atoms: _510  and  _511
REMARK  211  A    between atoms: _511  and  _512
REMARK  212  A    between atoms: _515  and  _517
REMARK  213  A    between atoms: _517  and  _518
REMARK  214  A    between atoms: _517  and  _520
REMARK  215  A    between atoms: _520  and  _521
REMARK  216  A    between atoms: _524  and  _526
REMARK  217  A    between atoms: _526  and  _527
REMARK  218  A    between atoms: _526  and  _529
REMARK  219  A    between atoms: _529  and  _530
REMARK  220  A    between atoms: _530  and  _531
REMARK  221  A    between atoms: _531  and  _532
REMARK  222  A    between atoms: _541  and  _543
REMARK  223  A    between atoms: _543  and  _544
REMARK  224  A    between atoms: _543  and  _546
REMARK  225  A    between atoms: _546  and  _547
REMARK  226  A    between atoms: _550  and  _552
REMARK  227  A    between atoms: _552  and  _553
REMARK  228  A    between atoms: _552  and  _555
REMARK  229  A    between atoms: _555  and  _556
REMARK  230  A    between atoms: _561  and  _563
REMARK  231  A    between atoms: _563  and  _564
REMARK  232  A    between atoms: _563  and  _566
REMARK  233  A    between atoms: _566  and  _567
REMARK  234  A    between atoms: _567  and  _568
REMARK  235  A    between atoms: _568  and  _569
REMARK  236  A    between atoms: _578  and  _580
REMARK  237  A    between atoms: _580  and  _581
REMARK  238  A    between atoms: _580  and  _583
REMARK  239  A    between atoms: _583  and  _584
REMARK  240  A    between atoms: _584  and  _585
REMARK  241  A    between atoms: _587  and  _589
REMARK  242  A    between atoms: _589  and  _590
REMARK  243  A    between atoms: _589  and  _592
REMARK  244  A    between atoms: _592  and  _593
REMARK  245  A    between atoms: _593  and  _594
REMARK  246  A    between atoms: _596  and  _598
REMARK  247  A    between atoms: _598  and  _599
REMARK  248  A    between atoms: _598  and  _601
REMARK  249  A    between atoms: _601  and  _602
REMARK  250  A    between atoms: _602  and  _603
REMARK  251  A    between atoms: _603  and  _604
REMARK  252  A    between atoms: _604  and  _605
REMARK  253  A    between atoms: _609  and  _611
REMARK  254  A    between atoms: _611  and  _612
REMARK  255  A    between atoms: _611  and  _614
REMARK  256  A    between atoms: _614  and  _615
REMARK                            x       y       z     vdW  Elec       q    Type
REMARK                         _______ _______ _______ _____ _____    ______ ____
ROOT
ATOM      1  CA  MET A   1      58.265   5.225  40.173  0.00  0.00    +0.134 C 
ENDROOT
BRANCH   1   2
ATOM      2  N   MET A   1      57.137   6.100  39.865  0.00  0.00    -0.239 NA
ATOM      3  H   MET A   1      57.134   6.653  38.985  0.00  0.00    +0.142 HD
ENDBRANCH   1   2
BRANCH   1   4
ATOM      4  C   MET A   1      58.927   5.678  41.465  0.00  0.00    +0.224 C 
ATOM      5  O   MET A   1      59.414   4.848  42.243  0.00  0.00    -0.287 OA
ENDBRANCH   1   4
BRANCH   1   6
ATOM      6  CB  MET A   1      59.278   5.256  39.031  0.00  0.00    +0.037 C 
BRANCH   6   7
ATOM      7  CG  MET A   1      58.746   4.773  37.700  0.00  0.00    +0.059 C 
BRANCH   7   8
ATOM      8  SD  MET A   1      60.061   4.885  36.418  0.00  0.00    -0.139 S 
ATOM      9  CE  MET A   1      61.383   3.719  37.025  0.00  0.00    +0.069 C 
ENDBRANCH   7   8
ENDBRANCH   6   7
ENDBRANCH   1   6
TORSDOF 5
REMARK  Name = ../refined-set-2016/1x8r/1x8r_pocket.pdb
REMARK  256 active torsions:
REMARK  status: ('A' for Active; 'I' for Inactive)
REMARK    1  A    between atoms: _1  and  _3
REMARK    2  A    between atoms: _3  and  _4
REMARK    3  A    between atoms: _3  and  _6
REMARK    4  A    between atoms: _6  and  _7
REMARK    5  A    between atoms: _9  and  _11
REMARK    6  A    between atoms: _11  and  _12
REMARK    7  A    between atoms: _11  and  _14
REMARK    8  A    between atoms: _14  and  _15
REMARK    9  A    between atoms: _15  and  _16
REMARK   10  A    between atoms: _16  and  _17
REMARK   11  A    between atoms: _17  and  _18
REMARK   12  A    between atoms: _22  and  _24
REMARK   13  A    between atoms: _24  and  _25
REMARK   14  A    between atoms: _24  and  _27
REMARK   15  A    between atoms: _27  and  _28
REMARK   16  A    between atoms: _30  and  _32
REMARK   17  A    between atoms: _32  and  _33
REMARK   18  A    between atoms: _32  and  _35
REMARK   19  A    between atoms: _38  and  _40
REMARK   20  A    between atoms: _40  and  _41
REMARK   21  A    between atoms: _40  and  _43
REMARK   22  A    between atoms: _43  and  _44
REMARK   23  A    between atoms: _46  and  _48
REMARK   24  A    between atoms: _48  and  _49
REMARK   25  A    between atoms: _48  and  _51
REMARK   26  A    between atoms: _51  and  _52
REMARK   27  A    between atoms: _57  and  _59
REMARK   28  A    between atoms: _59  and  _60
REMARK   29  A    between atoms: _59  and  _62
REMARK   30  A    between atoms: _62  and  _63
REMARK   31  A    between atoms: _63  and  _64
REMARK   32  A    between atoms: _64  and  _65
REMARK   33  A    between atoms: _74  and  _76
REMARK   34  A    between atoms: _76  and  _77
REMARK   35  A    between atoms: _76  and  _79
REMARK   36  A    between atoms: _79  and  _80
REMARK   37  A    between atoms: _83  and  _85
REMARK   38  A    between atoms: _85  and  _86
REMARK   39  A    between atoms: _85  and  _88
REMARK   40  A    between atoms: _88  and  _89
REMARK   41  A    between atoms: _94  and  _96
REMARK   42  A    between atoms: _96  and  _97
REMARK   43  A    between atoms: _100  and  _102
REMARK   44  A    between atoms: _102  and  _103
REMARK   45  A    between atoms: _105  and  _107
REMARK   46  A    between atoms: _107  and  _108
REMARK   47  A    between atoms: _107  and  _110
REMARK   48  A    between atoms: _110  and  _111
REMARK   49  A    between atoms: _114  and  _116
REMARK   50  A    between atoms: _116  and  _117
REMARK   51  A    between atoms: _120  and  _122
REMARK   52  A    between atoms: _122  and  _123
REMARK   53  A    between atoms: _122  and  _125
REMARK   54  A    between atoms: _125  and  _126
REMARK   55  A    between atoms: _126  and  _127
REMARK   56  A    between atoms: _129  and  _131
REMARK   57  A    between atoms: _131  and  _132
REMARK   58  A    between atoms: _131  and  _134
REMARK   59  A    between atoms: _134  and  _135
REMARK   60  A    between atoms: _135  and  _136
REMARK   61  A    between atoms: _136  and  _137
REMARK   62  A    between atoms: _147  and  _148
REMARK   63  A    between atoms: _153  and  _155
REMARK   64  A    between atoms: _155  and  _156
REMARK   65  A    between atoms: _155  and  _158
REMARK   66  A    between atoms: _158  and  _159
REMARK   67  A    between atoms: _159  and  _160
REMARK   68  A    between atoms: _162  and  _164
REMARK   69  A    between atoms: _164  and  _165
REMARK   70  A    between atoms: _164  and  _167
REMARK   71  A    between atoms: _167  and  _168
REMARK   72  A    between atoms: _168  and  _169
REMARK   73  A    between atoms: _169  and  _170
REMARK   74  A    between atoms: _180  and  _181
REMARK   75  A    between atoms: _186  and  _188
REMARK   76  A    between atoms: _188  and  _189
REMARK   77  A    between atoms: _191  and  _193
REMARK   78  A    between atoms: _193  and  _194
REMARK   79  A    between atoms: _193  and  _196
REMARK   80  A    between atoms: _196  and  _197
REMARK   81  A    between atoms: _199  and  _201
REMARK   82  A    between atoms: _201  and  _202
REMARK   83  A    between atoms: _201  and  _204
REMARK   84  A    between atoms: _207  and  _209
REMARK   85  A    between atoms: _209  and  _210
REMARK   86  A    between atoms: _209  and  _212
REMARK   87  A    between atoms: _212  and  _213
REMARK   88  A    between atoms: _215  and  _217
REMARK   89  A    between atoms: _217  and  _218
REMARK   90  A    between atoms: _217  and  _220
REMARK   91  A    between atoms: _220  and  _221
REMARK   92  A    between atoms: _223  and  _225
REMARK   93  A    between atoms: _225  and  _226
REMARK   94  A    between atoms: _225  and  _228
REMARK   95  A    between atoms: _228  and  _229
REMARK   96  A    between atoms: _229  and  _230
REMARK   97  A    between atoms: _235  and  _237
REMARK   98  A    between atoms: _237  and  _238
REMARK   99  A    between atoms: _237  and  _240
REMARK  100  A    between atoms: _240  and  _241
REMARK  101  A    between atoms: _247  and  _249
REMARK  102  A    between atoms: _249  and  _250
REMARK  103  A    between atoms: _249  and  _252
REMARK  104  A    between atoms: _252  and  _253
REMARK  105  A    between atoms: _256  and  _258
REMARK  106  A    between atoms: _258  and  _259
REMARK  107  A    between atoms: _258  and  _261
REMARK  108  A    between atoms: _261  and  _262
REMARK  109  A    between atoms: _265  and  _267
REMARK  110  A    between atoms: _267  and  _268
REMARK  111  A    between atoms: _271  and  _273
REMARK  112  A    between atoms: _273  and  _274
REMARK  113  A    between atoms: _273  and  _276
REMARK  114  A    between atoms: _276  and  _277
REMARK  115  A    between atoms: _277  and  _278
REMARK  116  A    between atoms: _280  and  _282
REMARK  117  A    between atoms: _282  and  _283
REMARK  118  A    between atoms: _282  and  _285
REMARK  119  A    between atoms: _285  and  _286
REMARK  120  A    between atoms: _289  and  _291
REMARK  121  A    between atoms: _291  and  _292
REMARK  122  A    between atoms: _291  and  _294
REMARK  123  A    between atoms: _297  and  _299
REMARK  124  A    between atoms: _299  and  _300
REMARK  125  A    between atoms: _299  and  _302
REMARK  126  A    between atoms: _302  and  _303
REMARK  127  A    between atoms: _305  and  _307
REMARK  128  A    between atoms: _307  and  _308
REMARK  129  A    between atoms: _307  and  _310
REMARK  130  A    between atoms: _310  and  _311
REMARK  131  A    between atoms: _311  and  _312
REMARK  132  A    between atoms: _312  and  _313
REMARK  133  A    between atoms: _313  and  _314
REMARK  134  A    between atoms: _319  and  _320
REMARK  135  A    between atoms: _325  and  _327
REMARK  136  A    between atoms: _327  and  _328
REMARK  137  A    between atoms: _327  and  _330
REMARK  138  A    between atoms: _330  and  _331
REMARK  139  A    between atoms: _336  and  _337
REMARK  140  A    between atoms: _339  and  _341
REMARK  141  A    between atoms: _341  and  _342
REMARK  142  A    between atoms: _341  and  _344
REMARK  143  A    between atoms: _344  and  _345
REMARK  144  A    between atoms: _348  and  _350
REMARK  145  A    between atoms: _350  and  _351
REMARK  146  A    between atoms: _350  and  _353
REMARK  147  A    between atoms: _353  and  _354
REMARK  148  A    between atoms: _357  and  _359
REMARK  149  A    between atoms: _359  and  _360
REMARK  150  A    between atoms: _359  and  _362
REMARK  151  A    between atoms: _362  and  _363
REMARK  152  A    between atoms: _366  and  _368
REMARK  153  A    between atoms: _368  and  _369
REMARK  154  A    between atoms: _368  and  _371
REMARK  155  A    between atoms: _371  and  _372
REMARK  156  A    between atoms: _375  and  _377
REMARK  157  A    between atoms: _377  and  _378
REMARK  158  A    between atoms: _377  and  _380
REMARK  159  A    between atoms: _380  and  _381
REMARK  160  A    between atoms: _383  and  _385
REMARK  161  A    between atoms: _385  and  _386
REMARK  162  A    between atoms: _385  and  _388
REMARK  163  A    between atoms: _388  and  _389
REMARK  164  A    between atoms: _394  and  _395
REMARK  165  A    between atoms: _397  and  _399
REMARK  166  A    between atoms: _399  and  _400
REMARK  167  A    between atoms: _399  and  _402
REMARK  168  A    between atoms: _402  and  _403
REMARK  169  A    between atoms: _406  and  _408
REMARK  170  A    between atoms: _408  and  _409
REMARK  171  A    between atoms: _408  and  _411
REMARK  172  A    between atoms: _411  and  _412
REMARK  173  A    between atoms: _417  and  _419
REMARK  174  A    between atoms: _419  and  _420
REMARK  175  A    between atoms: _419  and  _422
REMARK  176  A    between atoms: _422  and  _423
REMARK  177  A    between atoms: _427  and  _428
REMARK  178  A    between atoms: _433  and  _435
REMARK  179  A    between atoms: _435  and  _436
REMARK  180  A    between atoms: _435  and  _438
REMARK  181  A    between atoms: _438  and  _439
REMARK  182  A    between atoms: _442  and  _444
REMARK  183  A    between atoms: _444  and  _445
REMARK  184  A    between atoms: _448  and  _450
REMARK  185  A    between atoms: _450  and  _451
REMARK  186  A    between atoms: _450  and  _453
REMARK  187  A    between atoms: _453  and  _454
REMARK  188  A    between atoms: _454  and  _455
REMARK  189  A    between atoms: _457  and  _459
REMARK  190  A    between atoms: _459  and  _460
REMARK  191  A    between atoms: _459  and  _462
REMARK  192  A    between atoms: _462  and  _463
REMARK  193  A    between atoms: _468  and  _470
REMARK  194  A    between atoms: _470  and  _471
REMARK  195  A    between atoms: _470  and  _473
REMARK  196  A    between atoms: _473  and  _474
REMARK  197  A    between atoms: _484  and  _486
REMARK  198  A    between atoms: _486  and  _487
REMARK  199  A    between atoms: _486  and  _489
REMARK  200  A    between atoms: _492  and  _494
REMARK  201  A    between atoms: _494  and  _495
REMARK  202  A    between atoms: _494  and  _497
REMARK  203  A    between atoms: _497  and  _498
REMARK  204  A    between atoms: _498  and  _499
REMARK  205  A    between atoms: _499  and  _500
REMARK  206  A    between atoms: _500  and  _501
REMARK  207  A    between atoms: _505  and  _507
REMARK  208  A    between atoms: _507  and  _508
REMARK  209  A    between atoms: _507  and  _510
REMARK  210  A    between atoms: _510  and  _511
REMARK  211  A    between atoms: _511  and  _512
REMARK  212  A    between atoms: _515  and  _517
REMARK  213  A    between atoms: _517  and  _518
REMARK  214  A    between atoms: _517  and  _520
REMARK  215  A    between atoms: _520  and  _521
REMARK  216  A    between atoms: _524  and  _526
REMARK  217  A    between atoms: _526  and  _527
REMARK  218  A    between atoms: _526  and  _529
REMARK  219  A    between atoms: _529  and  _530
REMARK  220  A    between atoms: _530  and  _531
REMARK  221  A    between atoms: _531  and  _532
REMARK  222  A    between atoms: _541  and  _543
REMARK  223  A    between atoms: _543  and  _544
REMARK  224  A    between atoms: _543  and  _546
REMARK  225  A    between atoms: _546  and  _547
REMARK  226  A    between atoms: _550  and  _552
REMARK  227  A    between atoms: _552  and  _553
REMARK  228  A    between atoms: _552  and  _555
REMARK  229  A    between atoms: _555  and  _556
REMARK  230  A    between atoms: _561  and  _563
REMARK  231  A    between atoms: _563  and  _564
REMARK  232  A    between atoms: _563  and  _566
REMARK  233  A    between atoms: _566  and  _567
REMARK  234  A    between atoms: _567  and  _568
REMARK  235  A    between atoms: _568  and  _569
REMARK  236  A    between atoms: _578  and  _580
REMARK  237  A    between atoms: _580  and  _581
REMARK  238  A    between atoms: _580  and  _583
REMARK  239  A    between atoms: _583  and  _584
REMARK  240  A    between atoms: _584  and  _585
REMARK  241  A    between atoms: _587  and  _589
REMARK  242  A    between atoms: _589  and  _590
REMARK  243  A    between atoms: _589  and  _592
REMARK  244  A    between atoms: _592  and  _593
REMARK  245  A    between atoms: _593  and  _594
REMARK  246  A    between atoms: _596  and  _598
REMARK  247  A    between atoms: _598  and  _599
REMARK  248  A    between atoms: _598  and  _601
REMARK  249  A    between atoms: _601  and  _602
REMARK  250  A    between atoms: _602  and  _603
REMARK  251  A    between atoms: _603  and  _604
REMARK  252  A    between atoms: _604  and  _605
REMARK  253  A    between atoms: _609  and  _611
REMARK  254  A    between atoms: _611  and  _612
REMARK  255  A    between atoms: _611  and  _614
REMARK  256  A    between atoms: _614  and  _615
REMARK                            x       y       z     vdW  Elec       q    Type
REMARK                         _______ _______ _______ _____ _____    ______ ____
ROOT
ATOM      1  CA  TRP A   2      55.947   1.183  32.586  0.00  0.00    +0.141 C 
ENDROOT
BRANCH   1   3
ATOM      2  C   ASN A   1      54.512   1.503  30.697  0.00  0.00    +0.239 C 
ATOM      3  N   TRP A   2      54.626   1.221  31.992  0.00  0.00    -0.298 N 
ATOM      4  H   TRP A   2      53.781   1.031  32.568  0.00  0.00    +0.150 HD
ATOM      5  O   ASN A   1      55.463   1.862  30.000  0.00  0.00    -0.274 OA
BRANCH   2   6
ATOM      6  CA  ASN A   1      53.133   1.311  30.097  0.00  0.00    +0.154 C 
BRANCH   6   7
ATOM      7  N   ASN A   1      52.092   0.860  31.002  0.00  0.00    -0.238 NA
ATOM      8  H   ASN A   1      51.305   1.483  31.275  0.00  0.00    +0.142 HD
ENDBRANCH   6   7
BRANCH   6   9
ATOM      9  CB  ASN A   1      52.637   2.480  29.213  0.00  0.00    +0.111 C 
BRANCH   9  10
ATOM     10  CG  ASN A   1      52.694   3.835  29.876  0.00  0.00    +0.221 C 
ATOM     11  OD1 ASN A   1      53.157   4.004  31.007  0.00  0.00    -0.275 OA
ATOM     12  ND2 ASN A   1      52.229   4.839  29.136  0.00  0.00    -0.329 N 
ATOM     13 HD21 ASN A   1      52.248   5.810  29.507  0.00  0.00    +0.145 HD
ATOM     14 HD22 ASN A   1      51.847   4.652  28.187  0.00  0.00    +0.145 HD
ENDBRANCH   9  10
ENDBRANCH   6   9
ENDBRANCH   2   6
ENDBRANCH   1   3
BRANCH   1  15
ATOM     15  C   TRP A   2      56.718   0.113  31.799  0.00  0.00    +0.227 C 
ATOM     16  O   TRP A   2      57.943   0.165  31.703  0.00  0.00    -0.286 OA
ENDBRANCH   1  15
BRANCH   1  17
ATOM     17  CB  TRP A   2      55.874   0.684  34.022  0.00  0.00    +0.056 C 
BRANCH  17  18
ATOM     18  CG  TRP A   2      55.675   1.717  35.063  0.00  0.00    -0.002 A 
ATOM     19  CD2 TRP A   2      56.017   1.586  36.441  0.00  0.00    +0.013 A 
ATOM     20  CE3 TRP A   2      56.633   0.582  37.190  0.00  0.00    +0.001 A 
ATOM     21  CZ3 TRP A   2      56.810   0.771  38.550  0.00  0.00    +0.000 A 
ATOM     22  CH2 TRP A   2      56.382   1.958  39.178  0.00  0.00    +0.001 A 
ATOM     23  CZ2 TRP A   2      55.781   2.963  38.470  0.00  0.00    +0.017 A 
ATOM     24  CE2 TRP A   2      55.598   2.767  37.096  0.00  0.00    +0.056 A 
ATOM     25  NE1 TRP A   2      55.023   3.579  36.150  0.00  0.00    -0.352 N 
ATOM     26  HE1 TRP A   2      54.616   4.519  36.327  0.00  0.00    +0.166 HD
ATOM     27  CD1 TRP A   2      55.073   2.946  34.929  0.00  0.00    +0.068 A 
ENDBRANCH  17  18
ENDBRANCH   1  17
TORSDOF 8
REMARK  Name = ../refined-set-2016/1x8r/1x8r_pocket.pdb
REMARK  256 active torsions:
REMARK  status: ('A' for Active; 'I' for Inactive)
REMARK    1  A    between atoms: _1  and  _3
REMARK    2  A    between atoms: _3  and  _4
REMARK    3  A    between atoms: _3  and  _6
REMARK    4  A    between atoms: _6  and  _7
REMARK    5  A    between atoms: _9  and  _11
REMARK    6  A    between atoms: _11  and  _12
REMARK    7  A    between atoms: _11  and  _14
REMARK    8  A    between atoms: _14  and  _15
REMARK    9  A    between atoms: _15  and  _16
REMARK   10  A    between atoms: _16  and  _17
REMARK   11  A    between atoms: _17  and  _18
REMARK   12  A    between atoms: _22  and  _24
REMARK   13  A    between atoms: _24  and  _25
REMARK   14  A    between atoms: _24  and  _27
REMARK   15  A    between atoms: _27  and  _28
REMARK   16  A    between atoms: _30  and  _32
REMARK   17  A    between atoms: _32  and  _33
REMARK   18  A    between atoms: _32  and  _35
REMARK   19  A    between atoms: _38  and  _40
REMARK   20  A    between atoms: _40  and  _41
REMARK   21  A    between atoms: _40  and  _43
REMARK   22  A    between atoms: _43  and  _44
REMARK   23  A    between atoms: _46  and  _48
REMARK   24  A    between atoms: _48  and  _49
REMARK   25  A    between atoms: _48  and  _51
REMARK   26  A    between atoms: _51  and  _52
REMARK   27  A    between atoms: _57  and  _59
REMARK   28  A    between atoms: _59  and  _60
REMARK   29  A    between atoms: _59  and  _62
REMARK   30  A    between atoms: _62  and  _63
REMARK   31  A    between atoms: _63  and  _64
REMARK   32  A    between atoms: _64  and  _65
REMARK   33  A    between atoms: _74  and  _76
REMARK   34  A    between atoms: _76  and  _77
REMARK   35  A    between atoms: _76  and  _79
REMARK   36  A    between atoms: _79  and  _80
REMARK   37  A    between atoms: _83  and  _85
REMARK   38  A    between atoms: _85  and  _86
REMARK   39  A    between atoms: _85  and  _88
REMARK   40  A    between atoms: _88  and  _89
REMARK   41  A    between atoms: _94  and  _96
REMARK   42  A    between atoms: _96  and  _97
REMARK   43  A    between atoms: _100  and  _102
REMARK   44  A    between atoms: _102  and  _103
REMARK   45  A    between atoms: _105  and  _107
REMARK   46  A    between atoms: _107  and  _108
REMARK   47  A    between atoms: _107  and  _110
REMARK   48  A    between atoms: _110  and  _111
REMARK   49  A    between atoms: _114  and  _116
REMARK   50  A    between atoms: _116  and  _117
REMARK   51  A    between atoms: _120  and  _122
REMARK   52  A    between atoms: _122  and  _123
REMARK   53  A    between atoms: _122  and  _125
REMARK   54  A    between atoms: _125  and  _126
REMARK   55  A    between atoms: _126  and  _127
REMARK   56  A    between atoms: _129  and  _131
REMARK   57  A    between atoms: _131  and  _132
REMARK   58  A    between atoms: _131  and  _134
REMARK   59  A    between atoms: _134  and  _135
REMARK   60  A    between atoms: _135  and  _136
REMARK   61  A    between atoms: _136  and  _137
REMARK   62  A    between atoms: _147  and  _148
REMARK   63  A    between atoms: _153  and  _155
REMARK   64  A    between atoms: _155  and  _156
REMARK   65  A    between atoms: _155  and  _158
REMARK   66  A    between atoms: _158  and  _159
REMARK   67  A    between atoms: _159  and  _160
REMARK   68  A    between atoms: _162  and  _164
REMARK   69  A    between atoms: _164  and  _165
REMARK   70  A    between atoms: _164  and  _167
REMARK   71  A    between atoms: _167  and  _168
REMARK   72  A    between atoms: _168  and  _169
REMARK   73  A    between atoms: _169  and  _170
REMARK   74  A    between atoms: _180  and  _181
REMARK   75  A    between atoms: _186  and  _188
REMARK   76  A    between atoms: _188  and  _189
REMARK   77  A    between atoms: _191  and  _193
REMARK   78  A    between atoms: _193  and  _194
REMARK   79  A    between atoms: _193  and  _196
REMARK   80  A    between atoms: _196  and  _197
REMARK   81  A    between atoms: _199  and  _201
REMARK   82  A    between atoms: _201  and  _202
REMARK   83  A    between atoms: _201  and  _204
REMARK   84  A    between atoms: _207  and  _209
REMARK   85  A    between atoms: _209  and  _210
REMARK   86  A    between atoms: _209  and  _212
REMARK   87  A    between atoms: _212  and  _213
REMARK   88  A    between atoms: _215  and  _217
REMARK   89  A    between atoms: _217  and  _218
REMARK   90  A    between atoms: _217  and  _220
REMARK   91  A    between atoms: _220  and  _221
REMARK   92  A    between atoms: _223  and  _225
REMARK   93  A    between atoms: _225  and  _226
REMARK   94  A    between atoms: _225  and  _228
REMARK   95  A    between atoms: _228  and  _229
REMARK   96  A    between atoms: _229  and  _230
REMARK   97  A    between atoms: _235  and  _237
REMARK   98  A    between atoms: _237  and  _238
REMARK   99  A    between atoms: _237  and  _240
REMARK  100  A    between atoms: _240  and  _241
REMARK  101  A    between atoms: _247  and  _249
REMARK  102  A    between atoms: _249  and  _250
REMARK  103  A    between atoms: _249  and  _252
REMARK  104  A    between atoms: _252  and  _253
REMARK  105  A    between atoms: _256  and  _258
REMARK  106  A    between atoms: _258  and  _259
REMARK  107  A    between atoms: _258  and  _261
REMARK  108  A    between atoms: _261  and  _262
REMARK  109  A    between atoms: _265  and  _267
REMARK  110  A    between atoms: _267  and  _268
REMARK  111  A    between atoms: _271  and  _273
REMARK  112  A    between atoms: _273  and  _274
REMARK  113  A    between atoms: _273  and  _276
REMARK  114  A    between atoms: _276  and  _277
REMARK  115  A    between atoms: _277  and  _278
REMARK  116  A    between atoms: _280  and  _282
REMARK  117  A    between atoms: _282  and  _283
REMARK  118  A    between atoms: _282  and  _285
REMARK  119  A    between atoms: _285  and  _286
REMARK  120  A    between atoms: _289  and  _291
REMARK  121  A    between atoms: _291  and  _292
REMARK  122  A    between atoms: _291  and  _294
REMARK  123  A    between atoms: _297  and  _299
REMARK  124  A    between atoms: _299  and  _300
REMARK  125  A    between atoms: _299  and  _302
REMARK  126  A    between atoms: _302  and  _303
REMARK  127  A    between atoms: _305  and  _307
REMARK  128  A    between atoms: _307  and  _308
REMARK  129  A    between atoms: _307  and  _310
REMARK  130  A    between atoms: _310  and  _311
REMARK  131  A    between atoms: _311  and  _312
REMARK  132  A    between atoms: _312  and  _313
REMARK  133  A    between atoms: _313  and  _314
REMARK  134  A    between atoms: _319  and  _320
REMARK  135  A    between atoms: _325  and  _327
REMARK  136  A    between atoms: _327  and  _328
REMARK  137  A    between atoms: _327  and  _330
REMARK  138  A    between atoms: _330  and  _331
REMARK  139  A    between atoms: _336  and  _337
REMARK  140  A    between atoms: _339  and  _341
REMARK  141  A    between atoms: _341  and  _342
REMARK  142  A    between atoms: _341  and  _344
REMARK  143  A    between atoms: _344  and  _345
REMARK  144  A    between atoms: _348  and  _350
REMARK  145  A    between atoms: _350  and  _351
REMARK  146  A    between atoms: _350  and  _353
REMARK  147  A    between atoms: _353  and  _354
REMARK  148  A    between atoms: _357  and  _359
REMARK  149  A    between atoms: _359  and  _360
REMARK  150  A    between atoms: _359  and  _362
REMARK  151  A    between atoms: _362  and  _363
REMARK  152  A    between atoms: _366  and  _368
REMARK  153  A    between atoms: _368  and  _369
REMARK  154  A    between atoms: _368  and  _371
REMARK  155  A    between atoms: _371  and  _372
REMARK  156  A    between atoms: _375  and  _377
REMARK  157  A    between atoms: _377  and  _378
REMARK  158  A    between atoms: _377  and  _380
REMARK  159  A    between atoms: _380  and  _381
REMARK  160  A    between atoms: _383  and  _385
REMARK  161  A    between atoms: _385  and  _386
REMARK  162  A    between atoms: _385  and  _388
REMARK  163  A    between atoms: _388  and  _389
REMARK  164  A    between atoms: _394  and  _395
REMARK  165  A    between atoms: _397  and  _399
REMARK  166  A    between atoms: _399  and  _400
REMARK  167  A    between atoms: _399  and  _402
REMARK  168  A    between atoms: _402  and  _403
REMARK  169  A    between atoms: _406  and  _408
REMARK  170  A    between atoms: _408  and  _409
REMARK  171  A    between atoms: _408  and  _411
REMARK  172  A    between atoms: _411  and  _412
REMARK  173  A    between atoms: _417  and  _419
REMARK  174  A    between atoms: _419  and  _420
REMARK  175  A    between atoms: _419  and  _422
REMARK  176  A    between atoms: _422  and  _423
REMARK  177  A    between atoms: _427  and  _428
REMARK  178  A    between atoms: _433  and  _435
REMARK  179  A    between atoms: _435  and  _436
REMARK  180  A    between atoms: _435  and  _438
REMARK  181  A    between atoms: _438  and  _439
REMARK  182  A    between atoms: _442  and  _444
REMARK  183  A    between atoms: _444  and  _445
REMARK  184  A    between atoms: _448  and  _450
REMARK  185  A    between atoms: _450  and  _451
REMARK  186  A    between atoms: _450  and  _453
REMARK  187  A    between atoms: _453  and  _454
REMARK  188  A    between atoms: _454  and  _455
REMARK  189  A    between atoms: _457  and  _459
REMARK  190  A    between atoms: _459  and  _460
REMARK  191  A    between atoms: _459  and  _462
REMARK  192  A    between atoms: _462  and  _463
REMARK  193  A    between atoms: _468  and  _470
REMARK  194  A    between atoms: _470  and  _471
REMARK  195  A    between atoms: _470  and  _473
REMARK  196  A    between atoms: _473  and  _474
REMARK  197  A    between atoms: _484  and  _486
REMARK  198  A    between atoms: _486  and  _487
REMARK  199  A    between atoms: _486  and  _489
REMARK  200  A    between atoms: _492  and  _494
REMARK  201  A    between atoms: _494  and  _495
REMARK  202  A    between atoms: _494  and  _497
REMARK  203  A    between atoms: _497  and  _498
REMARK  204  A    between atoms: _498  and  _499
REMARK  205  A    between atoms: _499  and  _500
REMARK  206  A    between atoms: _500  and  _501
REMARK  207  A    between atoms: _505  and  _507
REMARK  208  A    between atoms: _507  and  _508
REMARK  209  A    between atoms: _507  and  _510
REMARK  210  A    between atoms: _510  and  _511
REMARK  211  A    between atoms: _511  and  _512
REMARK  212  A    between atoms: _515  and  _517
REMARK  213  A    between atoms: _517  and  _518
REMARK  214  A    between atoms: _517  and  _520
REMARK  215  A    between atoms: _520  and  _521
REMARK  216  A    between atoms: _524  and  _526
REMARK  217  A    between atoms: _526  and  _527
REMARK  218  A    between atoms: _526  and  _529
REMARK  219  A    between atoms: _529  and  _530
REMARK  220  A    between atoms: _530  and  _531
REMARK  221  A    between atoms: _531  and  _532
REMARK  222  A    between atoms: _541  and  _543
REMARK  223  A    between atoms: _543  and  _544
REMARK  224  A    between atoms: _543  and  _546
REMARK  225  A    between atoms: _546  and  _547
REMARK  226  A    between atoms: _550  and  _552
REMARK  227  A    between atoms: _552  and  _553
REMARK  228  A    between atoms: _552  and  _555
REMARK  229  A    between atoms: _555  and  _556
REMARK  230  A    between atoms: _561  and  _563
REMARK  231  A    between atoms: _563  and  _564
REMARK  232  A    between atoms: _563  and  _566
REMARK  233  A    between atoms: _566  and  _567
REMARK  234  A    between atoms: _567  and  _568
REMARK  235  A    between atoms: _568  and  _569
REMARK  236  A    between atoms: _578  and  _580
REMARK  237  A    between atoms: _580  and  _581
REMARK  238  A    between atoms: _580  and  _583
REMARK  239  A    between atoms: _583  and  _584
REMARK  240  A    between atoms: _584  and  _585
REMARK  241  A    between atoms: _587  and  _589
REMARK  242  A    between atoms: _589  and  _590
REMARK  243  A    between atoms: _589  and  _592
REMARK  244  A    between atoms: _592  and  _593
REMARK  245  A    between atoms: _593  and  _594
REMARK  246  A    between atoms: _596  and  _598
REMARK  247  A    between atoms: _598  and  _599
REMARK  248  A    between atoms: _598  and  _601
REMARK  249  A    between atoms: _601  and  _602
REMARK  250  A    between atoms: _602  and  _603
REMARK  251  A    between atoms: _603  and  _604
REMARK  252  A    between atoms: _604  and  _605
REMARK  253  A    between atoms: _609  and  _611
REMARK  254  A    between atoms: _611  and  _612
REMARK  255  A    between atoms: _611  and  _614
REMARK  256  A    between atoms: _614  and  _615
REMARK                            x       y       z     vdW  Elec       q    Type
REMARK                         _______ _______ _______ _____ _____    ______ ____
ROOT
ATOM      1  C   LYS A   2      61.232   2.237  28.169  0.00  0.00    +0.241 C 
ATOM      2  N   GLU A   3      62.091   2.990  28.866  0.00  0.00    -0.297 N 
ATOM      3  H   GLU A   3      61.729   3.774  29.446  0.00  0.00    +0.150 HD
ATOM      4  O   LYS A   2      61.606   1.289  27.476  0.00  0.00    -0.273 OA
ENDROOT
BRANCH   2   5
ATOM      5  CA  GLU A   3      63.543   2.729  28.827  0.00  0.00    +0.149 C 
BRANCH   5   6
ATOM      6  C   GLU A   3      63.891   1.280  29.104  0.00  0.00    +0.241 C 
ATOM      7  N   THR A   4      63.072   0.632  29.924  0.00  0.00    -0.296 N 
ATOM      8  H   THR A   4      62.302   1.159  30.382  0.00  0.00    +0.150 HD
ATOM      9  O   GLU A   3      64.888   0.770  28.607  0.00  0.00    -0.273 OA
BRANCH   7  10
ATOM     10  CA  THR A   4      63.212  -0.785  30.205  0.00  0.00    +0.164 C 
BRANCH  10  11
ATOM     11  C   THR A   4      61.814  -1.196  30.618  0.00  0.00    +0.229 C 
ATOM     12  O   THR A   4      60.930  -0.347  30.650  0.00  0.00    -0.286 OA
ENDBRANCH  10  11
BRANCH  10  13
ATOM     13  CB  THR A   4      64.215  -1.090  31.358  0.00  0.00    +0.136 C 
ATOM     14  CG2 THR A   4      63.657  -0.656  32.751  0.00  0.00    +0.034 C 
BRANCH  13  15
ATOM     15  OG1 THR A   4      64.433  -2.512  31.395  0.00  0.00    -0.382 OA
ATOM     16  HG1 THR A   4      64.807  -2.810  30.528  0.00  0.00    +0.210 HD
ENDBRANCH  13  15
ENDBRANCH  10  13
ENDBRANCH   7  10
ENDBRANCH   5   6
BRANCH   5  17
ATOM     17  CB  GLU A   3      64.281   3.642  29.800  0.00  0.00    +0.041 C 
BRANCH  17  18
ATOM     18  CG  GLU A   3      64.445   5.083  29.313  0.00  0.00    +0.116 C 
BRANCH  18  19
ATOM     19  CD  GLU A   3      63.133   5.751  28.921  0.00  0.00    +0.365 C 
ATOM     20  OE2 GLU A   3      62.088   5.457  29.545  0.00  0.00    -0.246 OA
ATOM     21  OE1 GLU A   3      63.150   6.585  27.986  0.00  0.00    -0.246 OA
ENDBRANCH  18  19
ENDBRANCH  17  18
ENDBRANCH   5  17
ENDBRANCH   2   5
BRANCH   1  22
ATOM     22  CA  LYS A   2      59.730   2.566  28.207  0.00  0.00    +0.149 C 
BRANCH  22  24
ATOM     23  C   VAL A   1      58.202   1.036  27.136  0.00  0.00    +0.238 C 
ATOM     24  N   LYS A   2      58.880   1.389  28.217  0.00  0.00    -0.297 N 
ATOM     25  H   LYS A   2      58.803   0.817  29.082  0.00  0.00    +0.150 HD
ATOM     26  O   VAL A   1      58.276   1.670  26.069  0.00  0.00    -0.274 OA
BRANCH  23  27
ATOM     27  CA  VAL A   1      57.340  -0.215  27.265  0.00  0.00    +0.145 C 
BRANCH  27  28
ATOM     28  CB  VAL A   1      56.141  -0.138  26.269  0.00  0.00    +0.025 C 
ATOM     29  CG2 VAL A   1      55.163   0.963  26.658  0.00  0.00    +0.002 C 
ATOM     30  CG1 VAL A   1      55.409  -1.454  26.259  0.00  0.00    +0.002 C 
ENDBRANCH  27  28
BRANCH  27  31
ATOM     31  N   VAL A   1      56.855  -0.536  28.618  0.00  0.00    -0.238 NA
ATOM     32  H   VAL A   1      56.202   0.109  29.106  0.00  0.00    +0.142 HD
ENDBRANCH  27  31
ENDBRANCH  23  27
ENDBRANCH  22  24
BRANCH  22  33
ATOM     33  CB  LYS A   2      59.299   3.460  29.372  0.00  0.00    +0.029 C 
BRANCH  33  34
ATOM     34  CG  LYS A   2      57.967   4.101  29.030  0.00  0.00    +0.000 C 
BRANCH  34  35
ATOM     35  CD  LYS A   2      57.308   4.813  30.180  0.00  0.00    -0.024 C 
BRANCH  35  36
ATOM     36  CE  LYS A   2      56.054   5.507  29.659  0.00  0.00    -0.086 C 
BRANCH  36  37
ATOM     37  NZ  LYS A   2      55.365   6.308  30.706  0.00  0.00    +0.380 N 
ATOM     38  HZ1 LYS A   2      55.083   5.684  31.489  0.00  0.00    -0.089 HD
ATOM     39  HZ2 LYS A   2      56.011   7.041  31.061  0.00  0.00    -0.089 HD
ATOM     40  HZ3 LYS A   2      54.521   6.757  30.297  0.00  0.00    -0.089 HD
ENDBRANCH  36  37
ENDBRANCH  35  36
ENDBRANCH  34  35
ENDBRANCH  33  34
ENDBRANCH  22  33
ENDBRANCH   1  22
TORSDOF 19
REMARK  Name = ../refined-set-2016/1x8r/1x8r_pocket.pdb
REMARK  256 active torsions:
REMARK  status: ('A' for Active; 'I' for Inactive)
REMARK    1  A    between atoms: _1  and  _3
REMARK    2  A    between atoms: _3  and  _4
REMARK    3  A    between atoms: _3  and  _6
REMARK    4  A    between atoms: _6  and  _7
REMARK    5  A    between atoms: _9  and  _11
REMARK    6  A    between atoms: _11  and  _12
REMARK    7  A    between atoms: _11  and  _14
REMARK    8  A    between atoms: _14  and  _15
REMARK    9  A    between atoms: _15  and  _16
REMARK   10  A    between atoms: _16  and  _17
REMARK   11  A    between atoms: _17  and  _18
REMARK   12  A    between atoms: _22  and  _24
REMARK   13  A    between atoms: _24  and  _25
REMARK   14  A    between atoms: _24  and  _27
REMARK   15  A    between atoms: _27  and  _28
REMARK   16  A    between atoms: _30  and  _32
REMARK   17  A    between atoms: _32  and  _33
REMARK   18  A    between atoms: _32  and  _35
REMARK   19  A    between atoms: _38  and  _40
REMARK   20  A    between atoms: _40  and  _41
REMARK   21  A    between atoms: _40  and  _43
REMARK   22  A    between atoms: _43  and  _44
REMARK   23  A    between atoms: _46  and  _48
REMARK   24  A    between atoms: _48  and  _49
REMARK   25  A    between atoms: _48  and  _51
REMARK   26  A    between atoms: _51  and  _52
REMARK   27  A    between atoms: _57  and  _59
REMARK   28  A    between atoms: _59  and  _60
REMARK   29  A    between atoms: _59  and  _62
REMARK   30  A    between atoms: _62  and  _63
REMARK   31  A    between atoms: _63  and  _64
REMARK   32  A    between atoms: _64  and  _65
REMARK   33  A    between atoms: _74  and  _76
REMARK   34  A    between atoms: _76  and  _77
REMARK   35  A    between atoms: _76  and  _79
REMARK   36  A    between atoms: _79  and  _80
REMARK   37  A    between atoms: _83  and  _85
REMARK   38  A    between atoms: _85  and  _86
REMARK   39  A    between atoms: _85  and  _88
REMARK   40  A    between atoms: _88  and  _89
REMARK   41  A    between atoms: _94  and  _96
REMARK   42  A    between atoms: _96  and  _97
REMARK   43  A    between atoms: _100  and  _102
REMARK   44  A    between atoms: _102  and  _103
REMARK   45  A    between atoms: _105  and  _107
REMARK   46  A    between atoms: _107  and  _108
REMARK   47  A    between atoms: _107  and  _110
REMARK   48  A    between atoms: _110  and  _111
REMARK   49  A    between atoms: _114  and  _116
REMARK   50  A    between atoms: _116  and  _117
REMARK   51  A    between atoms: _120  and  _122
REMARK   52  A    between atoms: _122  and  _123
REMARK   53  A    between atoms: _122  and  _125
REMARK   54  A    between atoms: _125  and  _126
REMARK   55  A    between atoms: _126  and  _127
REMARK   56  A    between atoms: _129  and  _131
REMARK   57  A    between atoms: _131  and  _132
REMARK   58  A    between atoms: _131  and  _134
REMARK   59  A    between atoms: _134  and  _135
REMARK   60  A    between atoms: _135  and  _136
REMARK   61  A    between atoms: _136  and  _137
REMARK   62  A    between atoms: _147  and  _148
REMARK   63  A    between atoms: _153  and  _155
REMARK   64  A    between atoms: _155  and  _156
REMARK   65  A    between atoms: _155  and  _158
REMARK   66  A    between atoms: _158  and  _159
REMARK   67  A    between atoms: _159  and  _160
REMARK   68  A    between atoms: _162  and  _164
REMARK   69  A    between atoms: _164  and  _165
REMARK   70  A    between atoms: _164  and  _167
REMARK   71  A    between atoms: _167  and  _168
REMARK   72  A    between atoms: _168  and  _169
REMARK   73  A    between atoms: _169  and  _170
REMARK   74  A    between atoms: _180  and  _181
REMARK   75  A    between atoms: _186  and  _188
REMARK   76  A    between atoms: _188  and  _189
REMARK   77  A    between atoms: _191  and  _193
REMARK   78  A    between atoms: _193  and  _194
REMARK   79  A    between atoms: _193  and  _196
REMARK   80  A    between atoms: _196  and  _197
REMARK   81  A    between atoms: _199  and  _201
REMARK   82  A    between atoms: _201  and  _202
REMARK   83  A    between atoms: _201  and  _204
REMARK   84  A    between atoms: _207  and  _209
REMARK   85  A    between atoms: _209  and  _210
REMARK   86  A    between atoms: _209  and  _212
REMARK   87  A    between atoms: _212  and  _213
REMARK   88  A    between atoms: _215  and  _217
REMARK   89  A    between atoms: _217  and  _218
REMARK   90  A    between atoms: _217  and  _220
REMARK   91  A    between atoms: _220  and  _221
REMARK   92  A    between atoms: _223  and  _225
REMARK   93  A    between atoms: _225  and  _226
REMARK   94  A    between atoms: _225  and  _228
REMARK   95  A    between atoms: _228  and  _229
REMARK   96  A    between atoms: _229  and  _230
REMARK   97  A    between atoms: _235  and  _237
REMARK   98  A    between atoms: _237  and  _238
REMARK   99  A    between atoms: _237  and  _240
REMARK  100  A    between atoms: _240  and  _241
REMARK  101  A    between atoms: _247  and  _249
REMARK  102  A    between atoms: _249  and  _250
REMARK  103  A    between atoms: _249  and  _252
REMARK  104  A    between atoms: _252  and  _253
REMARK  105  A    between atoms: _256  and  _258
REMARK  106  A    between atoms: _258  and  _259
REMARK  107  A    between atoms: _258  and  _261
REMARK  108  A    between atoms: _261  and  _262
REMARK  109  A    between atoms: _265  and  _267
REMARK  110  A    between atoms: _267  and  _268
REMARK  111  A    between atoms: _271  and  _273
REMARK  112  A    between atoms: _273  and  _274
REMARK  113  A    between atoms: _273  and  _276
REMARK  114  A    between atoms: _276  and  _277
REMARK  115  A    between atoms: _277  and  _278
REMARK  116  A    between atoms: _280  and  _282
REMARK  117  A    between atoms: _282  and  _283
REMARK  118  A    between atoms: _282  and  _285
REMARK  119  A    between atoms: _285  and  _286
REMARK  120  A    between atoms: _289  and  _291
REMARK  121  A    between atoms: _291  and  _292
REMARK  122  A    between atoms: _291  and  _294
REMARK  123  A    between atoms: _297  and  _299
REMARK  124  A    between atoms: _299  and  _300
REMARK  125  A    between atoms: _299  and  _302
REMARK  126  A    between atoms: _302  and  _303
REMARK  127  A    between atoms: _305  and  _307
REMARK  128  A    between atoms: _307  and  _308
REMARK  129  A    between atoms: _307  and  _310
REMARK  130  A    between atoms: _310  and  _311
REMARK  131  A    between atoms: _311  and  _312
REMARK  132  A    between atoms: _312  and  _313
REMARK  133  A    between atoms: _313  and  _314
REMARK  134  A    between atoms: _319  and  _320
REMARK  135  A    between atoms: _325  and  _327
REMARK  136  A    between atoms: _327  and  _328
REMARK  137  A    between atoms: _327  and  _330
REMARK  138  A    between atoms: _330  and  _331
REMARK  139  A    between atoms: _336  and  _337
REMARK  140  A    between atoms: _339  and  _341
REMARK  141  A    between atoms: _341  and  _342
REMARK  142  A    between atoms: _341  and  _344
REMARK  143  A    between atoms: _344  and  _345
REMARK  144  A    between atoms: _348  and  _350
REMARK  145  A    between atoms: _350  and  _351
REMARK  146  A    between atoms: _350  and  _353
REMARK  147  A    between atoms: _353  and  _354
REMARK  148  A    between atoms: _357  and  _359
REMARK  149  A    between atoms: _359  and  _360
REMARK  150  A    between atoms: _359  and  _362
REMARK  151  A    between atoms: _362  and  _363
REMARK  152  A    between atoms: _366  and  _368
REMARK  153  A    between atoms: _368  and  _369
REMARK  154  A    between atoms: _368  and  _371
REMARK  155  A    between atoms: _371  and  _372
REMARK  156  A    between atoms: _375  and  _377
REMARK  157  A    between atoms: _377  and  _378
REMARK  158  A    between atoms: _377  and  _380
REMARK  159  A    between atoms: _380  and  _381
REMARK  160  A    between atoms: _383  and  _385
REMARK  161  A    between atoms: _385  and  _386
REMARK  162  A    between atoms: _385  and  _388
REMARK  163  A    between atoms: _388  and  _389
REMARK  164  A    between atoms: _394  and  _395
REMARK  165  A    between atoms: _397  and  _399
REMARK  166  A    between atoms: _399  and  _400
REMARK  167  A    between atoms: _399  and  _402
REMARK  168  A    between atoms: _402  and  _403
REMARK  169  A    between atoms: _406  and  _408
REMARK  170  A    between atoms: _408  and  _409
REMARK  171  A    between atoms: _408  and  _411
REMARK  172  A    between atoms: _411  and  _412
REMARK  173  A    between atoms: _417  and  _419
REMARK  174  A    between atoms: _419  and  _420
REMARK  175  A    between atoms: _419  and  _422
REMARK  176  A    between atoms: _422  and  _423
REMARK  177  A    between atoms: _427  and  _428
REMARK  178  A    between atoms: _433  and  _435
REMARK  179  A    between atoms: _435  and  _436
REMARK  180  A    between atoms: _435  and  _438
REMARK  181  A    between atoms: _438  and  _439
REMARK  182  A    between atoms: _442  and  _444
REMARK  183  A    between atoms: _444  and  _445
REMARK  184  A    between atoms: _448  and  _450
REMARK  185  A    between atoms: _450  and  _451
REMARK  186  A    between atoms: _450  and  _453
REMARK  187  A    between atoms: _453  and  _454
REMARK  188  A    between atoms: _454  and  _455
REMARK  189  A    between atoms: _457  and  _459
REMARK  190  A    between atoms: _459  and  _460
REMARK  191  A    between atoms: _459  and  _462
REMARK  192  A    between atoms: _462  and  _463
REMARK  193  A    between atoms: _468  and  _470
REMARK  194  A    between atoms: _470  and  _471
REMARK  195  A    between atoms: _470  and  _473
REMARK  196  A    between atoms: _473  and  _474
REMARK  197  A    between atoms: _484  and  _486
REMARK  198  A    between atoms: _486  and  _487
REMARK  199  A    between atoms: _486  and  _489
REMARK  200  A    between atoms: _492  and  _494
REMARK  201  A    between atoms: _494  and  _495
REMARK  202  A    between atoms: _494  and  _497
REMARK  203  A    between atoms: _497  and  _498
REMARK  204  A    between atoms: _498  and  _499
REMARK  205  A    between atoms: _499  and  _500
REMARK  206  A    between atoms: _500  and  _501
REMARK  207  A    between atoms: _505  and  _507
REMARK  208  A    between atoms: _507  and  _508
REMARK  209  A    between atoms: _507  and  _510
REMARK  210  A    between atoms: _510  and  _511
REMARK  211  A    between atoms: _511  and  _512
REMARK  212  A    between atoms: _515  and  _517
REMARK  213  A    between atoms: _517  and  _518
REMARK  214  A    between atoms: _517  and  _520
REMARK  215  A    between atoms: _520  and  _521
REMARK  216  A    between atoms: _524  and  _526
REMARK  217  A    between atoms: _526  and  _527
REMARK  218  A    between atoms: _526  and  _529
REMARK  219  A    between atoms: _529  and  _530
REMARK  220  A    between atoms: _530  and  _531
REMARK  221  A    between atoms: _531  and  _532
REMARK  222  A    between atoms: _541  and  _543
REMARK  223  A    between atoms: _543  and  _544
REMARK  224  A    between atoms: _543  and  _546
REMARK  225  A    between atoms: _546  and  _547
REMARK  226  A    between atoms: _550  and  _552
REMARK  227  A    between atoms: _552  and  _553
REMARK  228  A    between atoms: _552  and  _555
REMARK  229  A    between atoms: _555  and  _556
REMARK  230  A    between atoms: _561  and  _563
REMARK  231  A    between atoms: _563  and  _564
REMARK  232  A    between atoms: _563  and  _566
REMARK  233  A    between atoms: _566  and  _567
REMARK  234  A    between atoms: _567  and  _568
REMARK  235  A    between atoms: _568  and  _569
REMARK  236  A    between atoms: _578  and  _580
REMARK  237  A    between atoms: _580  and  _581
REMARK  238  A    between atoms: _580  and  _583
REMARK  239  A    between atoms: _583  and  _584
REMARK  240  A    between atoms: _584  and  _585
REMARK  241  A    between atoms: _587  and  _589
REMARK  242  A    between atoms: _589  and  _590
REMARK  243  A    between atoms: _589  and  _592
REMARK  244  A    between atoms: _592  and  _593
REMARK  245  A    between atoms: _593  and  _594
REMARK  246  A    between atoms: _596  and  _598
REMARK  247  A    between atoms: _598  and  _599
REMARK  248  A    between atoms: _598  and  _601
REMARK  249  A    between atoms: _601  and  _602
REMARK  250  A    between atoms: _602  and  _603
REMARK  251  A    between atoms: _603  and  _604
REMARK  252  A    between atoms: _604  and  _605
REMARK  253  A    between atoms: _609  and  _611
REMARK  254  A    between atoms: _611  and  _612
REMARK  255  A    between atoms: _611  and  _614
REMARK  256  A    between atoms: _614  and  _615
REMARK                            x       y       z     vdW  Elec       q    Type
REMARK                         _______ _______ _______ _____ _____    ______ ____
ROOT
ATOM      1  NE  ARG A   1      61.080   3.849  33.253  0.00  0.00    -0.265 N 
ATOM      2  HE  ARG A   1      62.061   3.523  33.364  0.00  0.00    +0.259 HD
ATOM      3  CZ  ARG A   1      60.891   5.096  32.831  0.00  0.00    +0.342 C 
ATOM      4  NH2 ARG A   1      59.663   5.579  32.637  0.00  0.00    -0.292 N 
ATOM      5 HH21 ARG A   1      58.833   4.978  32.816  0.00  0.00    +0.255 HD
ATOM      6 HH22 ARG A   1      59.535   6.557  32.307  0.00  0.00    +0.255 HD
ATOM      7  NH1 ARG A   1      61.937   5.878  32.585  0.00  0.00    -0.292 N 
ATOM      8 HH11 ARG A   1      62.902   5.515  32.723  0.00  0.00    +0.255 HD
ATOM      9 HH12 ARG A   1      61.791   6.853  32.255  0.00  0.00    +0.255 HD
ENDROOT
BRANCH   1  10
ATOM     10  CD  ARG A   1      60.009   2.898  33.574  0.00  0.00    +0.174 C 
BRANCH  10  11
ATOM     11  CG  ARG A   1      60.597   1.520  33.859  0.00  0.00    +0.045 C 
BRANCH  11  12
ATOM     12  CB  ARG A   1      59.621   0.632  34.636  0.00  0.00    +0.029 C 
BRANCH  12  13
ATOM     13  CA  ARG A   1      59.998  -0.838  34.573  0.00  0.00    +0.133 C 
BRANCH  13  14
ATOM     14  N   ARG A   1      59.838  -1.337  33.214  0.00  0.00    -0.239 NA
ATOM     15  H   ARG A   1      59.268  -0.802  32.528  0.00  0.00    +0.142 HD
ENDBRANCH  13  14
BRANCH  13  16
ATOM     16  C   ARG A   1      59.271  -1.615  35.646  0.00  0.00    +0.224 C 
ATOM     17  O   ARG A   1      59.649  -1.545  36.805  0.00  0.00    -0.287 OA
ENDBRANCH  13  16
ENDBRANCH  12  13
ENDBRANCH  11  12
ENDBRANCH  10  11
ENDBRANCH   1  10
TORSDOF 6
REMARK  Name = ../refined-set-2016/1x8r/1x8r_pocket.pdb
REMARK  256 active torsions:
REMARK  status: ('A' for Active; 'I' for Inactive)
REMARK    1  A    between atoms: _1  and  _3
REMARK    2  A    between atoms: _3  and  _4
REMARK    3  A    between atoms: _3  and  _6
REMARK    4  A    between atoms: _6  and  _7
REMARK    5  A    between atoms: _9  and  _11
REMARK    6  A    between atoms: _11  and  _12
REMARK    7  A    between atoms: _11  and  _14
REMARK    8  A    between atoms: _14  and  _15
REMARK    9  A    between atoms: _15  and  _16
REMARK   10  A    between atoms: _16  and  _17
REMARK   11  A    between atoms: _17  and  _18
REMARK   12  A    between atoms: _22  and  _24
REMARK   13  A    between atoms: _24  and  _25
REMARK   14  A    between atoms: _24  and  _27
REMARK   15  A    between atoms: _27  and  _28
REMARK   16  A    between atoms: _30  and  _32
REMARK   17  A    between atoms: _32  and  _33
REMARK   18  A    between atoms: _32  and  _35
REMARK   19  A    between atoms: _38  and  _40
REMARK   20  A    between atoms: _40  and  _41
REMARK   21  A    between atoms: _40  and  _43
REMARK   22  A    between atoms: _43  and  _44
REMARK   23  A    between atoms: _46  and  _48
REMARK   24  A    between atoms: _48  and  _49
REMARK   25  A    between atoms: _48  and  _51
REMARK   26  A    between atoms: _51  and  _52
REMARK   27  A    between atoms: _57  and  _59
REMARK   28  A    between atoms: _59  and  _60
REMARK   29  A    between atoms: _59  and  _62
REMARK   30  A    between atoms: _62  and  _63
REMARK   31  A    between atoms: _63  and  _64
REMARK   32  A    between atoms: _64  and  _65
REMARK   33  A    between atoms: _74  and  _76
REMARK   34  A    between atoms: _76  and  _77
REMARK   35  A    between atoms: _76  and  _79
REMARK   36  A    between atoms: _79  and  _80
REMARK   37  A    between atoms: _83  and  _85
REMARK   38  A    between atoms: _85  and  _86
REMARK   39  A    between atoms: _85  and  _88
REMARK   40  A    between atoms: _88  and  _89
REMARK   41  A    between atoms: _94  and  _96
REMARK   42  A    between atoms: _96  and  _97
REMARK   43  A    between atoms: _100  and  _102
REMARK   44  A    between atoms: _102  and  _103
REMARK   45  A    between atoms: _105  and  _107
REMARK   46  A    between atoms: _107  and  _108
REMARK   47  A    between atoms: _107  and  _110
REMARK   48  A    between atoms: _110  and  _111
REMARK   49  A    between atoms: _114  and  _116
REMARK   50  A    between atoms: _116  and  _117
REMARK   51  A    between atoms: _120  and  _122
REMARK   52  A    between atoms: _122  and  _123
REMARK   53  A    between atoms: _122  and  _125
REMARK   54  A    between atoms: _125  and  _126
REMARK   55  A    between atoms: _126  and  _127
REMARK   56  A    between atoms: _129  and  _131
REMARK   57  A    between atoms: _131  and  _132
REMARK   58  A    between atoms: _131  and  _134
REMARK   59  A    between atoms: _134  and  _135
REMARK   60  A    between atoms: _135  and  _136
REMARK   61  A    between atoms: _136  and  _137
REMARK   62  A    between atoms: _147  and  _148
REMARK   63  A    between atoms: _153  and  _155
REMARK   64  A    between atoms: _155  and  _156
REMARK   65  A    between atoms: _155  and  _158
REMARK   66  A    between atoms: _158  and  _159
REMARK   67  A    between atoms: _159  and  _160
REMARK   68  A    between atoms: _162  and  _164
REMARK   69  A    between atoms: _164  and  _165
REMARK   70  A    between atoms: _164  and  _167
REMARK   71  A    between atoms: _167  and  _168
REMARK   72  A    between atoms: _168  and  _169
REMARK   73  A    between atoms: _169  and  _170
REMARK   74  A    between atoms: _180  and  _181
REMARK   75  A    between atoms: _186  and  _188
REMARK   76  A    between atoms: _188  and  _189
REMARK   77  A    between atoms: _191  and  _193
REMARK   78  A    between atoms: _193  and  _194
REMARK   79  A    between atoms: _193  and  _196
REMARK   80  A    between atoms: _196  and  _197
REMARK   81  A    between atoms: _199  and  _201
REMARK   82  A    between atoms: _201  and  _202
REMARK   83  A    between atoms: _201  and  _204
REMARK   84  A    between atoms: _207  and  _209
REMARK   85  A    between atoms: _209  and  _210
REMARK   86  A    between atoms: _209  and  _212
REMARK   87  A    between atoms: _212  and  _213
REMARK   88  A    between atoms: _215  and  _217
REMARK   89  A    between atoms: _217  and  _218
REMARK   90  A    between atoms: _217  and  _220
REMARK   91  A    between atoms: _220  and  _221
REMARK   92  A    between atoms: _223  and  _225
REMARK   93  A    between atoms: _225  and  _226
REMARK   94  A    between atoms: _225  and  _228
REMARK   95  A    between atoms: _228  and  _229
REMARK   96  A    between atoms: _229  and  _230
REMARK   97  A    between atoms: _235  and  _237
REMARK   98  A    between atoms: _237  and  _238
REMARK   99  A    between atoms: _237  and  _240
REMARK  100  A    between atoms: _240  and  _241
REMARK  101  A    between atoms: _247  and  _249
REMARK  102  A    between atoms: _249  and  _250
REMARK  103  A    between atoms: _249  and  _252
REMARK  104  A    between atoms: _252  and  _253
REMARK  105  A    between atoms: _256  and  _258
REMARK  106  A    between atoms: _258  and  _259
REMARK  107  A    between atoms: _258  and  _261
REMARK  108  A    between atoms: _261  and  _262
REMARK  109  A    between atoms: _265  and  _267
REMARK  110  A    between atoms: _267  and  _268
REMARK  111  A    between atoms: _271  and  _273
REMARK  112  A    between atoms: _273  and  _274
REMARK  113  A    between atoms: _273  and  _276
REMARK  114  A    between atoms: _276  and  _277
REMARK  115  A    between atoms: _277  and  _278
REMARK  116  A    between atoms: _280  and  _282
REMARK  117  A    between atoms: _282  and  _283
REMARK  118  A    between atoms: _282  and  _285
REMARK  119  A    between atoms: _285  and  _286
REMARK  120  A    between atoms: _289  and  _291
REMARK  121  A    between atoms: _291  and  _292
REMARK  122  A    between atoms: _291  and  _294
REMARK  123  A    between atoms: _297  and  _299
REMARK  124  A    between atoms: _299  and  _300
REMARK  125  A    between atoms: _299  and  _302
REMARK  126  A    between atoms: _302  and  _303
REMARK  127  A    between atoms: _305  and  _307
REMARK  128  A    between atoms: _307  and  _308
REMARK  129  A    between atoms: _307  and  _310
REMARK  130  A    between atoms: _310  and  _311
REMARK  131  A    between atoms: _311  and  _312
REMARK  132  A    between atoms: _312  and  _313
REMARK  133  A    between atoms: _313  and  _314
REMARK  134  A    between atoms: _319  and  _320
REMARK  135  A    between atoms: _325  and  _327
REMARK  136  A    between atoms: _327  and  _328
REMARK  137  A    between atoms: _327  and  _330
REMARK  138  A    between atoms: _330  and  _331
REMARK  139  A    between atoms: _336  and  _337
REMARK  140  A    between atoms: _339  and  _341
REMARK  141  A    between atoms: _341  and  _342
REMARK  142  A    between atoms: _341  and  _344
REMARK  143  A    between atoms: _344  and  _345
REMARK  144  A    between atoms: _348  and  _350
REMARK  145  A    between atoms: _350  and  _351
REMARK  146  A    between atoms: _350  and  _353
REMARK  147  A    between atoms: _353  and  _354
REMARK  148  A    between atoms: _357  and  _359
REMARK  149  A    between atoms: _359  and  _360
REMARK  150  A    between atoms: _359  and  _362
REMARK  151  A    between atoms: _362  and  _363
REMARK  152  A    between atoms: _366  and  _368
REMARK  153  A    between atoms: _368  and  _369
REMARK  154  A    between atoms: _368  and  _371
REMARK  155  A    between atoms: _371  and  _372
REMARK  156  A    between atoms: _375  and  _377
REMARK  157  A    between atoms: _377  and  _378
REMARK  158  A    between atoms: _377  and  _380
REMARK  159  A    between atoms: _380  and  _381
REMARK  160  A    between atoms: _383  and  _385
REMARK  161  A    between atoms: _385  and  _386
REMARK  162  A    between atoms: _385  and  _388
REMARK  163  A    between atoms: _388  and  _389
REMARK  164  A    between atoms: _394  and  _395
REMARK  165  A    between atoms: _397  and  _399
REMARK  166  A    between atoms: _399  and  _400
REMARK  167  A    between atoms: _399  and  _402
REMARK  168  A    between atoms: _402  and  _403
REMARK  169  A    between atoms: _406  and  _408
REMARK  170  A    between atoms: _408  and  _409
REMARK  171  A    between atoms: _408  and  _411
REMARK  172  A    between atoms: _411  and  _412
REMARK  173  A    between atoms: _417  and  _419
REMARK  174  A    between atoms: _419  and  _420
REMARK  175  A    between atoms: _419  and  _422
REMARK  176  A    between atoms: _422  and  _423
REMARK  177  A    between atoms: _427  and  _428
REMARK  178  A    between atoms: _433  and  _435
REMARK  179  A    between atoms: _435  and  _436
REMARK  180  A    between atoms: _435  and  _438
REMARK  181  A    between atoms: _438  and  _439
REMARK  182  A    between atoms: _442  and  _444
REMARK  183  A    between atoms: _444  and  _445
REMARK  184  A    between atoms: _448  and  _450
REMARK  185  A    between atoms: _450  and  _451
REMARK  186  A    between atoms: _450  and  _453
REMARK  187  A    between atoms: _453  and  _454
REMARK  188  A    between atoms: _454  and  _455
REMARK  189  A    between atoms: _457  and  _459
REMARK  190  A    between atoms: _459  and  _460
REMARK  191  A    between atoms: _459  and  _462
REMARK  192  A    between atoms: _462  and  _463
REMARK  193  A    between atoms: _468  and  _470
REMARK  194  A    between atoms: _470  and  _471
REMARK  195  A    between atoms: _470  and  _473
REMARK  196  A    between atoms: _473  and  _474
REMARK  197  A    between atoms: _484  and  _486
REMARK  198  A    between atoms: _486  and  _487
REMARK  199  A    between atoms: _486  and  _489
REMARK  200  A    between atoms: _492  and  _494
REMARK  201  A    between atoms: _494  and  _495
REMARK  202  A    between atoms: _494  and  _497
REMARK  203  A    between atoms: _497  and  _498
REMARK  204  A    between atoms: _498  and  _499
REMARK  205  A    between atoms: _499  and  _500
REMARK  206  A    between atoms: _500  and  _501
REMARK  207  A    between atoms: _505  and  _507
REMARK  208  A    between atoms: _507  and  _508
REMARK  209  A    between atoms: _507  and  _510
REMARK  210  A    between atoms: _510  and  _511
REMARK  211  A    between atoms: _511  and  _512
REMARK  212  A    between atoms: _515  and  _517
REMARK  213  A    between atoms: _517  and  _518
REMARK  214  A    between atoms: _517  and  _520
REMARK  215  A    between atoms: _520  and  _521
REMARK  216  A    between atoms: _524  and  _526
REMARK  217  A    between atoms: _526  and  _527
REMARK  218  A    between atoms: _526  and  _529
REMARK  219  A    between atoms: _529  and  _530
REMARK  220  A    between atoms: _530  and  _531
REMARK  221  A    between atoms: _531  and  _532
REMARK  222  A    between atoms: _541  and  _543
REMARK  223  A    between atoms: _543  and  _544
REMARK  224  A    between atoms: _543  and  _546
REMARK  225  A    between atoms: _546  and  _547
REMARK  226  A    between atoms: _550  and  _552
REMARK  227  A    between atoms: _552  and  _553
REMARK  228  A    between atoms: _552  and  _555
REMARK  229  A    between atoms: _555  and  _556
REMARK  230  A    between atoms: _561  and  _563
REMARK  231  A    between atoms: _563  and  _564
REMARK  232  A    between atoms: _563  and  _566
REMARK  233  A    between atoms: _566  and  _567
REMARK  234  A    between atoms: _567  and  _568
REMARK  235  A    between atoms: _568  and  _569
REMARK  236  A    between atoms: _578  and  _580
REMARK  237  A    between atoms: _580  and  _581
REMARK  238  A    between atoms: _580  and  _583
REMARK  239  A    between atoms: _583  and  _584
REMARK  240  A    between atoms: _584  and  _585
REMARK  241  A    between atoms: _587  and  _589
REMARK  242  A    between atoms: _589  and  _590
REMARK  243  A    between atoms: _589  and  _592
REMARK  244  A    between atoms: _592  and  _593
REMARK  245  A    between atoms: _593  and  _594
REMARK  246  A    between atoms: _596  and  _598
REMARK  247  A    between atoms: _598  and  _599
REMARK  248  A    between atoms: _598  and  _601
REMARK  249  A    between atoms: _601  and  _602
REMARK  250  A    between atoms: _602  and  _603
REMARK  251  A    between atoms: _603  and  _604
REMARK  252  A    between atoms: _604  and  _605
REMARK  253  A    between atoms: _609  and  _611
REMARK  254  A    between atoms: _611  and  _612
REMARK  255  A    between atoms: _611  and  _614
REMARK  256  A    between atoms: _614  and  _615
REMARK                            x       y       z     vdW  Elec       q    Type
REMARK                         _______ _______ _______ _____ _____    ______ ____
ROOT
ATOM      1  CA  ARG A   3      64.706   6.797  36.538  0.00  0.00    +0.149 C 
ENDROOT
BRANCH   1   4
ATOM      2  C   HIS A   2      66.825   7.197  35.495  0.00  0.00    +0.241 C 
ATOM      3  O   HIS A   2      67.318   7.483  36.592  0.00  0.00    -0.273 OA
ATOM      4  N   ARG A   3      65.562   6.801  35.353  0.00  0.00    -0.297 N 
ATOM      5  H   ARG A   3      65.195   6.503  34.426  0.00  0.00    +0.150 HD
BRANCH   2   6
ATOM      6  CA  HIS A   2      67.673   7.243  34.237  0.00  0.00    +0.155 C 
BRANCH   6   9
ATOM      7  C   ASP A   1      67.382   4.873  33.745  0.00  0.00    +0.239 C 
ATOM      8  O   ASP A   1      67.521   4.547  34.921  0.00  0.00    -0.274 OA
ATOM      9  N   HIS A   2      67.441   6.128  33.322  0.00  0.00    -0.297 N 
ATOM     10  H   HIS A   2      67.318   6.325  32.308  0.00  0.00    +0.150 HD
BRANCH   7  11
ATOM     11  CA  ASP A   1      67.105   3.843  32.661  0.00  0.00    +0.156 C 
BRANCH  11  12
ATOM     12  N   ASP A   1      68.282   3.032  32.392  0.00  0.00    -0.238 NA
ATOM     13  H   ASP A   1      68.717   2.492  33.167  0.00  0.00    +0.142 HD
ENDBRANCH  11  12
BRANCH  11  14
ATOM     14  CB  ASP A   1      65.965   2.904  33.072  0.00  0.00    +0.140 C 
BRANCH  14  15
ATOM     15  CG  ASP A   1      64.645   3.629  33.319  0.00  0.00    +0.367 C 
ATOM     16  OD2 ASP A   1      63.653   2.914  33.582  0.00  0.00    -0.246 OA
ATOM     17  OD1 ASP A   1      64.591   4.872  33.261  0.00  0.00    -0.246 OA
ENDBRANCH  14  15
ENDBRANCH  11  14
ENDBRANCH   7  11
ENDBRANCH   6   9
BRANCH   6  18
ATOM     18  CB  HIS A   2      67.445   8.581  33.495  0.00  0.00    +0.076 C 
BRANCH  18  19
ATOM     19  CG  HIS A   2      66.066   8.759  32.914  0.00  0.00    +0.082 A 
ATOM     20  ND1 HIS A   2      65.468   9.998  32.839  0.00  0.00    -0.227 NA
ATOM     21  CE1 HIS A   2      64.296   9.885  32.233  0.00  0.00    +0.199 A 
ATOM     22  NE2 HIS A   2      64.116   8.620  31.906  0.00  0.00    -0.221 NA
ATOM     23  CD2 HIS A   2      65.209   7.891  32.321  0.00  0.00    +0.115 A 
ENDBRANCH  18  19
ENDBRANCH   6  18
ENDBRANCH   2   6
ENDBRANCH   1   4
BRANCH   1  24
ATOM     24  C   ARG A   3      64.981   5.669  37.513  0.00  0.00    +0.241 C 
ATOM     25  O   ARG A   3      64.711   5.814  38.686  0.00  0.00    -0.273 OA
ATOM     26  N   MET A   4      65.544   4.550  37.053  0.00  0.00    -0.298 N 
ATOM     27  H   MET A   4      65.721   4.429  36.035  0.00  0.00    +0.150 HD
BRANCH  26  28
ATOM     28  CA  MET A   4      65.908   3.496  37.998  0.00  0.00    +0.138 C 
BRANCH  28  29
ATOM     29  C   MET A   4      67.049   4.020  38.893  0.00  0.00    +0.227 C 
ATOM     30  O   MET A   4      67.033   3.834  40.110  0.00  0.00    -0.286 OA
ENDBRANCH  28  29
BRANCH  28  31
ATOM     31  CB  MET A   4      66.380   2.252  37.260  0.00  0.00    +0.039 C 
BRANCH  31  32
ATOM     32  CG  MET A   4      65.256   1.444  36.622  0.00  0.00    +0.060 C 
BRANCH  32  33
ATOM     33  SD  MET A   4      64.074   0.775  37.826  0.00  0.00    -0.139 S 
ATOM     34  CE  MET A   4      65.156  -0.443  38.645  0.00  0.00    +0.069 C 
ENDBRANCH  32  33
ENDBRANCH  31  32
ENDBRANCH  28  31
ENDBRANCH  26  28
ENDBRANCH   1  24
BRANCH   1  35
ATOM     35  CB  ARG A   3      63.237   6.840  36.136  0.00  0.00    +0.033 C 
BRANCH  35  36
ATOM     36  CG  ARG A   3      62.934   8.100  35.346  0.00  0.00    +0.045 C 
BRANCH  36  37
ATOM     37  CD  ARG A   3      61.447   8.468  35.374  0.00  0.00    +0.174 C 
BRANCH  37  38
ATOM     38  NE  ARG A   3      61.272   9.546  34.405  0.00  0.00    -0.265 N 
ATOM     39  CZ  ARG A   3      61.709  10.794  34.540  0.00  0.00    +0.342 C 
ATOM     40  NH2 ARG A   3      62.293  11.217  35.663  0.00  0.00    -0.292 N 
ATOM     41 HH21 ARG A   3      62.416  10.564  36.463  0.00  0.00    +0.255 HD
ATOM     42 HH22 ARG A   3      62.625  12.200  35.738  0.00  0.00    +0.255 HD
ATOM     43  NH1 ARG A   3      61.497  11.648  33.537  0.00  0.00    -0.292 N 
ATOM     44 HH11 ARG A   3      61.827  12.631  33.613  0.00  0.00    +0.255 HD
ATOM     45 HH12 ARG A   3      61.002  11.330  32.679  0.00  0.00    +0.255 HD
ATOM     46  HE  ARG A   3      60.759   9.317  33.530  0.00  0.00    +0.259 HD
ENDBRANCH  37  38
ENDBRANCH  36  37
ENDBRANCH  35  36
ENDBRANCH   1  35
TORSDOF 19
REMARK  Name = ../refined-set-2016/1x8r/1x8r_pocket.pdb
REMARK  256 active torsions:
REMARK  status: ('A' for Active; 'I' for Inactive)
REMARK    1  A    between atoms: _1  and  _3
REMARK    2  A    between atoms: _3  and  _4
REMARK    3  A    between atoms: _3  and  _6
REMARK    4  A    between atoms: _6  and  _7
REMARK    5  A    between atoms: _9  and  _11
REMARK    6  A    between atoms: _11  and  _12
REMARK    7  A    between atoms: _11  and  _14
REMARK    8  A    between atoms: _14  and  _15
REMARK    9  A    between atoms: _15  and  _16
REMARK   10  A    between atoms: _16  and  _17
REMARK   11  A    between atoms: _17  and  _18
REMARK   12  A    between atoms: _22  and  _24
REMARK   13  A    between atoms: _24  and  _25
REMARK   14  A    between atoms: _24  and  _27
REMARK   15  A    between atoms: _27  and  _28
REMARK   16  A    between atoms: _30  and  _32
REMARK   17  A    between atoms: _32  and  _33
REMARK   18  A    between atoms: _32  and  _35
REMARK   19  A    between atoms: _38  and  _40
REMARK   20  A    between atoms: _40  and  _41
REMARK   21  A    between atoms: _40  and  _43
REMARK   22  A    between atoms: _43  and  _44
REMARK   23  A    between atoms: _46  and  _48
REMARK   24  A    between atoms: _48  and  _49
REMARK   25  A    between atoms: _48  and  _51
REMARK   26  A    between atoms: _51  and  _52
REMARK   27  A    between atoms: _57  and  _59
REMARK   28  A    between atoms: _59  and  _60
REMARK   29  A    between atoms: _59  and  _62
REMARK   30  A    between atoms: _62  and  _63
REMARK   31  A    between atoms: _63  and  _64
REMARK   32  A    between atoms: _64  and  _65
REMARK   33  A    between atoms: _74  and  _76
REMARK   34  A    between atoms: _76  and  _77
REMARK   35  A    between atoms: _76  and  _79
REMARK   36  A    between atoms: _79  and  _80
REMARK   37  A    between atoms: _83  and  _85
REMARK   38  A    between atoms: _85  and  _86
REMARK   39  A    between atoms: _85  and  _88
REMARK   40  A    between atoms: _88  and  _89
REMARK   41  A    between atoms: _94  and  _96
REMARK   42  A    between atoms: _96  and  _97
REMARK   43  A    between atoms: _100  and  _102
REMARK   44  A    between atoms: _102  and  _103
REMARK   45  A    between atoms: _105  and  _107
REMARK   46  A    between atoms: _107  and  _108
REMARK   47  A    between atoms: _107  and  _110
REMARK   48  A    between atoms: _110  and  _111
REMARK   49  A    between atoms: _114  and  _116
REMARK   50  A    between atoms: _116  and  _117
REMARK   51  A    between atoms: _120  and  _122
REMARK   52  A    between atoms: _122  and  _123
REMARK   53  A    between atoms: _122  and  _125
REMARK   54  A    between atoms: _125  and  _126
REMARK   55  A    between atoms: _126  and  _127
REMARK   56  A    between atoms: _129  and  _131
REMARK   57  A    between atoms: _131  and  _132
REMARK   58  A    between atoms: _131  and  _134
REMARK   59  A    between atoms: _134  and  _135
REMARK   60  A    between atoms: _135  and  _136
REMARK   61  A    between atoms: _136  and  _137
REMARK   62  A    between atoms: _147  and  _148
REMARK   63  A    between atoms: _153  and  _155
REMARK   64  A    between atoms: _155  and  _156
REMARK   65  A    between atoms: _155  and  _158
REMARK   66  A    between atoms: _158  and  _159
REMARK   67  A    between atoms: _159  and  _160
REMARK   68  A    between atoms: _162  and  _164
REMARK   69  A    between atoms: _164  and  _165
REMARK   70  A    between atoms: _164  and  _167
REMARK   71  A    between atoms: _167  and  _168
REMARK   72  A    between atoms: _168  and  _169
REMARK   73  A    between atoms: _169  and  _170
REMARK   74  A    between atoms: _180  and  _181
REMARK   75  A    between atoms: _186  and  _188
REMARK   76  A    between atoms: _188  and  _189
REMARK   77  A    between atoms: _191  and  _193
REMARK   78  A    between atoms: _193  and  _194
REMARK   79  A    between atoms: _193  and  _196
REMARK   80  A    between atoms: _196  and  _197
REMARK   81  A    between atoms: _199  and  _201
REMARK   82  A    between atoms: _201  and  _202
REMARK   83  A    between atoms: _201  and  _204
REMARK   84  A    between atoms: _207  and  _209
REMARK   85  A    between atoms: _209  and  _210
REMARK   86  A    between atoms: _209  and  _212
REMARK   87  A    between atoms: _212  and  _213
REMARK   88  A    between atoms: _215  and  _217
REMARK   89  A    between atoms: _217  and  _218
REMARK   90  A    between atoms: _217  and  _220
REMARK   91  A    between atoms: _220  and  _221
REMARK   92  A    between atoms: _223  and  _225
REMARK   93  A    between atoms: _225  and  _226
REMARK   94  A    between atoms: _225  and  _228
REMARK   95  A    between atoms: _228  and  _229
REMARK   96  A    between atoms: _229  and  _230
REMARK   97  A    between atoms: _235  and  _237
REMARK   98  A    between atoms: _237  and  _238
REMARK   99  A    between atoms: _237  and  _240
REMARK  100  A    between atoms: _240  and  _241
REMARK  101  A    between atoms: _247  and  _249
REMARK  102  A    between atoms: _249  and  _250
REMARK  103  A    between atoms: _249  and  _252
REMARK  104  A    between atoms: _252  and  _253
REMARK  105  A    between atoms: _256  and  _258
REMARK  106  A    between atoms: _258  and  _259
REMARK  107  A    between atoms: _258  and  _261
REMARK  108  A    between atoms: _261  and  _262
REMARK  109  A    between atoms: _265  and  _267
REMARK  110  A    between atoms: _267  and  _268
REMARK  111  A    between atoms: _271  and  _273
REMARK  112  A    between atoms: _273  and  _274
REMARK  113  A    between atoms: _273  and  _276
REMARK  114  A    between atoms: _276  and  _277
REMARK  115  A    between atoms: _277  and  _278
REMARK  116  A    between atoms: _280  and  _282
REMARK  117  A    between atoms: _282  and  _283
REMARK  118  A    between atoms: _282  and  _285
REMARK  119  A    between atoms: _285  and  _286
REMARK  120  A    between atoms: _289  and  _291
REMARK  121  A    between atoms: _291  and  _292
REMARK  122  A    between atoms: _291  and  _294
REMARK  123  A    between atoms: _297  and  _299
REMARK  124  A    between atoms: _299  and  _300
REMARK  125  A    between atoms: _299  and  _302
REMARK  126  A    between atoms: _302  and  _303
REMARK  127  A    between atoms: _305  and  _307
REMARK  128  A    between atoms: _307  and  _308
REMARK  129  A    between atoms: _307  and  _310
REMARK  130  A    between atoms: _310  and  _311
REMARK  131  A    between atoms: _311  and  _312
REMARK  132  A    between atoms: _312  and  _313
REMARK  133  A    between atoms: _313  and  _314
REMARK  134  A    between atoms: _319  and  _320
REMARK  135  A    between atoms: _325  and  _327
REMARK  136  A    between atoms: _327  and  _328
REMARK  137  A    between atoms: _327  and  _330
REMARK  138  A    between atoms: _330  and  _331
REMARK  139  A    between atoms: _336  and  _337
REMARK  140  A    between atoms: _339  and  _341
REMARK  141  A    between atoms: _341  and  _342
REMARK  142  A    between atoms: _341  and  _344
REMARK  143  A    between atoms: _344  and  _345
REMARK  144  A    between atoms: _348  and  _350
REMARK  145  A    between atoms: _350  and  _351
REMARK  146  A    between atoms: _350  and  _353
REMARK  147  A    between atoms: _353  and  _354
REMARK  148  A    between atoms: _357  and  _359
REMARK  149  A    between atoms: _359  and  _360
REMARK  150  A    between atoms: _359  and  _362
REMARK  151  A    between atoms: _362  and  _363
REMARK  152  A    between atoms: _366  and  _368
REMARK  153  A    between atoms: _368  and  _369
REMARK  154  A    between atoms: _368  and  _371
REMARK  155  A    between atoms: _371  and  _372
REMARK  156  A    between atoms: _375  and  _377
REMARK  157  A    between atoms: _377  and  _378
REMARK  158  A    between atoms: _377  and  _380
REMARK  159  A    between atoms: _380  and  _381
REMARK  160  A    between atoms: _383  and  _385
REMARK  161  A    between atoms: _385  and  _386
REMARK  162  A    between atoms: _385  and  _388
REMARK  163  A    between atoms: _388  and  _389
REMARK  164  A    between atoms: _394  and  _395
REMARK  165  A    between atoms: _397  and  _399
REMARK  166  A    between atoms: _399  and  _400
REMARK  167  A    between atoms: _399  and  _402
REMARK  168  A    between atoms: _402  and  _403
REMARK  169  A    between atoms: _406  and  _408
REMARK  170  A    between atoms: _408  and  _409
REMARK  171  A    between atoms: _408  and  _411
REMARK  172  A    between atoms: _411  and  _412
REMARK  173  A    between atoms: _417  and  _419
REMARK  174  A    between atoms: _419  and  _420
REMARK  175  A    between atoms: _419  and  _422
REMARK  176  A    between atoms: _422  and  _423
REMARK  177  A    between atoms: _427  and  _428
REMARK  178  A    between atoms: _433  and  _435
REMARK  179  A    between atoms: _435  and  _436
REMARK  180  A    between atoms: _435  and  _438
REMARK  181  A    between atoms: _438  and  _439
REMARK  182  A    between atoms: _442  and  _444
REMARK  183  A    between atoms: _444  and  _445
REMARK  184  A    between atoms: _448  and  _450
REMARK  185  A    between atoms: _450  and  _451
REMARK  186  A    between atoms: _450  and  _453
REMARK  187  A    between atoms: _453  and  _454
REMARK  188  A    between atoms: _454  and  _455
REMARK  189  A    between atoms: _457  and  _459
REMARK  190  A    between atoms: _459  and  _460
REMARK  191  A    between atoms: _459  and  _462
REMARK  192  A    between atoms: _462  and  _463
REMARK  193  A    between atoms: _468  and  _470
REMARK  194  A    between atoms: _470  and  _471
REMARK  195  A    between atoms: _470  and  _473
REMARK  196  A    between atoms: _473  and  _474
REMARK  197  A    between atoms: _484  and  _486
REMARK  198  A    between atoms: _486  and  _487
REMARK  199  A    between atoms: _486  and  _489
REMARK  200  A    between atoms: _492  and  _494
REMARK  201  A    between atoms: _494  and  _495
REMARK  202  A    between atoms: _494  and  _497
REMARK  203  A    between atoms: _497  and  _498
REMARK  204  A    between atoms: _498  and  _499
REMARK  205  A    between atoms: _499  and  _500
REMARK  206  A    between atoms: _500  and  _501
REMARK  207  A    between atoms: _505  and  _507
REMARK  208  A    between atoms: _507  and  _508
REMARK  209  A    between atoms: _507  and  _510
REMARK  210  A    between atoms: _510  and  _511
REMARK  211  A    between atoms: _511  and  _512
REMARK  212  A    between atoms: _515  and  _517
REMARK  213  A    between atoms: _517  and  _518
REMARK  214  A    between atoms: _517  and  _520
REMARK  215  A    between atoms: _520  and  _521
REMARK  216  A    between atoms: _524  and  _526
REMARK  217  A    between atoms: _526  and  _527
REMARK  218  A    between atoms: _526  and  _529
REMARK  219  A    between atoms: _529  and  _530
REMARK  220  A    between atoms: _530  and  _531
REMARK  221  A    between atoms: _531  and  _532
REMARK  222  A    between atoms: _541  and  _543
REMARK  223  A    between atoms: _543  and  _544
REMARK  224  A    between atoms: _543  and  _546
REMARK  225  A    between atoms: _546  and  _547
REMARK  226  A    between atoms: _550  and  _552
REMARK  227  A    between atoms: _552  and  _553
REMARK  228  A    between atoms: _552  and  _555
REMARK  229  A    between atoms: _555  and  _556
REMARK  230  A    between atoms: _561  and  _563
REMARK  231  A    between atoms: _563  and  _564
REMARK  232  A    between atoms: _563  and  _566
REMARK  233  A    between atoms: _566  and  _567
REMARK  234  A    between atoms: _567  and  _568
REMARK  235  A    between atoms: _568  and  _569
REMARK  236  A    between atoms: _578  and  _580
REMARK  237  A    between atoms: _580  and  _581
REMARK  238  A    between atoms: _580  and  _583
REMARK  239  A    between atoms: _583  and  _584
REMARK  240  A    between atoms: _584  and  _585
REMARK  241  A    between atoms: _587  and  _589
REMARK  242  A    between atoms: _589  and  _590
REMARK  243  A    between atoms: _589  and  _592
REMARK  244  A    between atoms: _592  and  _593
REMARK  245  A    between atoms: _593  and  _594
REMARK  246  A    between atoms: _596  and  _598
REMARK  247  A    between atoms: _598  and  _599
REMARK  248  A    between atoms: _598  and  _601
REMARK  249  A    between atoms: _601  and  _602
REMARK  250  A    between atoms: _602  and  _603
REMARK  251  A    between atoms: _603  and  _604
REMARK  252  A    between atoms: _604  and  _605
REMARK  253  A    between atoms: _609  and  _611
REMARK  254  A    between atoms: _611  and  _612
REMARK  255  A    between atoms: _611  and  _614
REMARK  256  A    between atoms: _614  and  _615
REMARK                            x       y       z     vdW  Elec       q    Type
REMARK                         _______ _______ _______ _____ _____    ______ ____
ROOT
ATOM      1  CA  MET A   1      67.331   8.200  40.565  0.00  0.00    +0.134 C 
ENDROOT
BRANCH   1   2
ATOM      2  N   MET A   1      67.781   7.184  39.636  0.00  0.00    -0.239 NA
ATOM      3  H   MET A   1      67.456   7.177  38.648  0.00  0.00    +0.142 HD
ENDBRANCH   1   2
BRANCH   1   4
ATOM      4  C   MET A   1      66.395   7.670  41.641  0.00  0.00    +0.224 C 
ATOM      5  O   MET A   1      66.469   8.054  42.799  0.00  0.00    -0.287 OA
ENDBRANCH   1   4
BRANCH   1   6
ATOM      6  CB  MET A   1      66.721   9.384  39.792  0.00  0.00    +0.037 C 
BRANCH   6   7
ATOM      7  CG  MET A   1      67.760  10.033  38.836  0.00  0.00    +0.059 C 
BRANCH   7   8
ATOM      8  SD  MET A   1      67.168  11.528  37.983  0.00  0.00    -0.139 S 
ATOM      9  CE  MET A   1      66.161  10.830  36.685  0.00  0.00    +0.069 C 
ENDBRANCH   7   8
ENDBRANCH   6   7
ENDBRANCH   1   6
TORSDOF 5
REMARK  Name = ../refined-set-2016/1x8r/1x8r_pocket.pdb
REMARK  256 active torsions:
REMARK  status: ('A' for Active; 'I' for Inactive)
REMARK    1  A    between atoms: _1  and  _3
REMARK    2  A    between atoms: _3  and  _4
REMARK    3  A    between atoms: _3  and  _6
REMARK    4  A    between atoms: _6  and  _7
REMARK    5  A    between atoms: _9  and  _11
REMARK    6  A    between atoms: _11  and  _12
REMARK    7  A    between atoms: _11  and  _14
REMARK    8  A    between atoms: _14  and  _15
REMARK    9  A    between atoms: _15  and  _16
REMARK   10  A    between atoms: _16  and  _17
REMARK   11  A    between atoms: _17  and  _18
REMARK   12  A    between atoms: _22  and  _24
REMARK   13  A    between atoms: _24  and  _25
REMARK   14  A    between atoms: _24  and  _27
REMARK   15  A    between atoms: _27  and  _28
REMARK   16  A    between atoms: _30  and  _32
REMARK   17  A    between atoms: _32  and  _33
REMARK   18  A    between atoms: _32  and  _35
REMARK   19  A    between atoms: _38  and  _40
REMARK   20  A    between atoms: _40  and  _41
REMARK   21  A    between atoms: _40  and  _43
REMARK   22  A    between atoms: _43  and  _44
REMARK   23  A    between atoms: _46  and  _48
REMARK   24  A    between atoms: _48  and  _49
REMARK   25  A    between atoms: _48  and  _51
REMARK   26  A    between atoms: _51  and  _52
REMARK   27  A    between atoms: _57  and  _59
REMARK   28  A    between atoms: _59  and  _60
REMARK   29  A    between atoms: _59  and  _62
REMARK   30  A    between atoms: _62  and  _63
REMARK   31  A    between atoms: _63  and  _64
REMARK   32  A    between atoms: _64  and  _65
REMARK   33  A    between atoms: _74  and  _76
REMARK   34  A    between atoms: _76  and  _77
REMARK   35  A    between atoms: _76  and  _79
REMARK   36  A    between atoms: _79  and  _80
REMARK   37  A    between atoms: _83  and  _85
REMARK   38  A    between atoms: _85  and  _86
REMARK   39  A    between atoms: _85  and  _88
REMARK   40  A    between atoms: _88  and  _89
REMARK   41  A    between atoms: _94  and  _96
REMARK   42  A    between atoms: _96  and  _97
REMARK   43  A    between atoms: _100  and  _102
REMARK   44  A    between atoms: _102  and  _103
REMARK   45  A    between atoms: _105  and  _107
REMARK   46  A    between atoms: _107  and  _108
REMARK   47  A    between atoms: _107  and  _110
REMARK   48  A    between atoms: _110  and  _111
REMARK   49  A    between atoms: _114  and  _116
REMARK   50  A    between atoms: _116  and  _117
REMARK   51  A    between atoms: _120  and  _122
REMARK   52  A    between atoms: _122  and  _123
REMARK   53  A    between atoms: _122  and  _125
REMARK   54  A    between atoms: _125  and  _126
REMARK   55  A    between atoms: _126  and  _127
REMARK   56  A    between atoms: _129  and  _131
REMARK   57  A    between atoms: _131  and  _132
REMARK   58  A    between atoms: _131  and  _134
REMARK   59  A    between atoms: _134  and  _135
REMARK   60  A    between atoms: _135  and  _136
REMARK   61  A    between atoms: _136  and  _137
REMARK   62  A    between atoms: _147  and  _148
REMARK   63  A    between atoms: _153  and  _155
REMARK   64  A    between atoms: _155  and  _156
REMARK   65  A    between atoms: _155  and  _158
REMARK   66  A    between atoms: _158  and  _159
REMARK   67  A    between atoms: _159  and  _160
REMARK   68  A    between atoms: _162  and  _164
REMARK   69  A    between atoms: _164  and  _165
REMARK   70  A    between atoms: _164  and  _167
REMARK   71  A    between atoms: _167  and  _168
REMARK   72  A    between atoms: _168  and  _169
REMARK   73  A    between atoms: _169  and  _170
REMARK   74  A    between atoms: _180  and  _181
REMARK   75  A    between atoms: _186  and  _188
REMARK   76  A    between atoms: _188  and  _189
REMARK   77  A    between atoms: _191  and  _193
REMARK   78  A    between atoms: _193  and  _194
REMARK   79  A    between atoms: _193  and  _196
REMARK   80  A    between atoms: _196  and  _197
REMARK   81  A    between atoms: _199  and  _201
REMARK   82  A    between atoms: _201  and  _202
REMARK   83  A    between atoms: _201  and  _204
REMARK   84  A    between atoms: _207  and  _209
REMARK   85  A    between atoms: _209  and  _210
REMARK   86  A    between atoms: _209  and  _212
REMARK   87  A    between atoms: _212  and  _213
REMARK   88  A    between atoms: _215  and  _217
REMARK   89  A    between atoms: _217  and  _218
REMARK   90  A    between atoms: _217  and  _220
REMARK   91  A    between atoms: _220  and  _221
REMARK   92  A    between atoms: _223  and  _225
REMARK   93  A    between atoms: _225  and  _226
REMARK   94  A    between atoms: _225  and  _228
REMARK   95  A    between atoms: _228  and  _229
REMARK   96  A    between atoms: _229  and  _230
REMARK   97  A    between atoms: _235  and  _237
REMARK   98  A    between atoms: _237  and  _238
REMARK   99  A    between atoms: _237  and  _240
REMARK  100  A    between atoms: _240  and  _241
REMARK  101  A    between atoms: _247  and  _249
REMARK  102  A    between atoms: _249  and  _250
REMARK  103  A    between atoms: _249  and  _252
REMARK  104  A    between atoms: _252  and  _253
REMARK  105  A    between atoms: _256  and  _258
REMARK  106  A    between atoms: _258  and  _259
REMARK  107  A    between atoms: _258  and  _261
REMARK  108  A    between atoms: _261  and  _262
REMARK  109  A    between atoms: _265  and  _267
REMARK  110  A    between atoms: _267  and  _268
REMARK  111  A    between atoms: _271  and  _273
REMARK  112  A    between atoms: _273  and  _274
REMARK  113  A    between atoms: _273  and  _276
REMARK  114  A    between atoms: _276  and  _277
REMARK  115  A    between atoms: _277  and  _278
REMARK  116  A    between atoms: _280  and  _282
REMARK  117  A    between atoms: _282  and  _283
REMARK  118  A    between atoms: _282  and  _285
REMARK  119  A    between atoms: _285  and  _286
REMARK  120  A    between atoms: _289  and  _291
REMARK  121  A    between atoms: _291  and  _292
REMARK  122  A    between atoms: _291  and  _294
REMARK  123  A    between atoms: _297  and  _299
REMARK  124  A    between atoms: _299  and  _300
REMARK  125  A    between atoms: _299  and  _302
REMARK  126  A    between atoms: _302  and  _303
REMARK  127  A    between atoms: _305  and  _307
REMARK  128  A    between atoms: _307  and  _308
REMARK  129  A    between atoms: _307  and  _310
REMARK  130  A    between atoms: _310  and  _311
REMARK  131  A    between atoms: _311  and  _312
REMARK  132  A    between atoms: _312  and  _313
REMARK  133  A    between atoms: _313  and  _314
REMARK  134  A    between atoms: _319  and  _320
REMARK  135  A    between atoms: _325  and  _327
REMARK  136  A    between atoms: _327  and  _328
REMARK  137  A    between atoms: _327  and  _330
REMARK  138  A    between atoms: _330  and  _331
REMARK  139  A    between atoms: _336  and  _337
REMARK  140  A    between atoms: _339  and  _341
REMARK  141  A    between atoms: _341  and  _342
REMARK  142  A    between atoms: _341  and  _344
REMARK  143  A    between atoms: _344  and  _345
REMARK  144  A    between atoms: _348  and  _350
REMARK  145  A    between atoms: _350  and  _351
REMARK  146  A    between atoms: _350  and  _353
REMARK  147  A    between atoms: _353  and  _354
REMARK  148  A    between atoms: _357  and  _359
REMARK  149  A    between atoms: _359  and  _360
REMARK  150  A    between atoms: _359  and  _362
REMARK  151  A    between atoms: _362  and  _363
REMARK  152  A    between atoms: _366  and  _368
REMARK  153  A    between atoms: _368  and  _369
REMARK  154  A    between atoms: _368  and  _371
REMARK  155  A    between atoms: _371  and  _372
REMARK  156  A    between atoms: _375  and  _377
REMARK  157  A    between atoms: _377  and  _378
REMARK  158  A    between atoms: _377  and  _380
REMARK  159  A    between atoms: _380  and  _381
REMARK  160  A    between atoms: _383  and  _385
REMARK  161  A    between atoms: _385  and  _386
REMARK  162  A    between atoms: _385  and  _388
REMARK  163  A    between atoms: _388  and  _389
REMARK  164  A    between atoms: _394  and  _395
REMARK  165  A    between atoms: _397  and  _399
REMARK  166  A    between atoms: _399  and  _400
REMARK  167  A    between atoms: _399  and  _402
REMARK  168  A    between atoms: _402  and  _403
REMARK  169  A    between atoms: _406  and  _408
REMARK  170  A    between atoms: _408  and  _409
REMARK  171  A    between atoms: _408  and  _411
REMARK  172  A    between atoms: _411  and  _412
REMARK  173  A    between atoms: _417  and  _419
REMARK  174  A    between atoms: _419  and  _420
REMARK  175  A    between atoms: _419  and  _422
REMARK  176  A    between atoms: _422  and  _423
REMARK  177  A    between atoms: _427  and  _428
REMARK  178  A    between atoms: _433  and  _435
REMARK  179  A    between atoms: _435  and  _436
REMARK  180  A    between atoms: _435  and  _438
REMARK  181  A    between atoms: _438  and  _439
REMARK  182  A    between atoms: _442  and  _444
REMARK  183  A    between atoms: _444  and  _445
REMARK  184  A    between atoms: _448  and  _450
REMARK  185  A    between atoms: _450  and  _451
REMARK  186  A    between atoms: _450  and  _453
REMARK  187  A    between atoms: _453  and  _454
REMARK  188  A    between atoms: _454  and  _455
REMARK  189  A    between atoms: _457  and  _459
REMARK  190  A    between atoms: _459  and  _460
REMARK  191  A    between atoms: _459  and  _462
REMARK  192  A    between atoms: _462  and  _463
REMARK  193  A    between atoms: _468  and  _470
REMARK  194  A    between atoms: _470  and  _471
REMARK  195  A    between atoms: _470  and  _473
REMARK  196  A    between atoms: _473  and  _474
REMARK  197  A    between atoms: _484  and  _486
REMARK  198  A    between atoms: _486  and  _487
REMARK  199  A    between atoms: _486  and  _489
REMARK  200  A    between atoms: _492  and  _494
REMARK  201  A    between atoms: _494  and  _495
REMARK  202  A    between atoms: _494  and  _497
REMARK  203  A    between atoms: _497  and  _498
REMARK  204  A    between atoms: _498  and  _499
REMARK  205  A    between atoms: _499  and  _500
REMARK  206  A    between atoms: _500  and  _501
REMARK  207  A    between atoms: _505  and  _507
REMARK  208  A    between atoms: _507  and  _508
REMARK  209  A    between atoms: _507  and  _510
REMARK  210  A    between atoms: _510  and  _511
REMARK  211  A    between atoms: _511  and  _512
REMARK  212  A    between atoms: _515  and  _517
REMARK  213  A    between atoms: _517  and  _518
REMARK  214  A    between atoms: _517  and  _520
REMARK  215  A    between atoms: _520  and  _521
REMARK  216  A    between atoms: _524  and  _526
REMARK  217  A    between atoms: _526  and  _527
REMARK  218  A    between atoms: _526  and  _529
REMARK  219  A    between atoms: _529  and  _530
REMARK  220  A    between atoms: _530  and  _531
REMARK  221  A    between atoms: _531  and  _532
REMARK  222  A    between atoms: _541  and  _543
REMARK  223  A    between atoms: _543  and  _544
REMARK  224  A    between atoms: _543  and  _546
REMARK  225  A    between atoms: _546  and  _547
REMARK  226  A    between atoms: _550  and  _552
REMARK  227  A    between atoms: _552  and  _553
REMARK  228  A    between atoms: _552  and  _555
REMARK  229  A    between atoms: _555  and  _556
REMARK  230  A    between atoms: _561  and  _563
REMARK  231  A    between atoms: _563  and  _564
REMARK  232  A    between atoms: _563  and  _566
REMARK  233  A    between atoms: _566  and  _567
REMARK  234  A    between atoms: _567  and  _568
REMARK  235  A    between atoms: _568  and  _569
REMARK  236  A    between atoms: _578  and  _580
REMARK  237  A    between atoms: _580  and  _581
REMARK  238  A    between atoms: _580  and  _583
REMARK  239  A    between atoms: _583  and  _584
REMARK  240  A    between atoms: _584  and  _585
REMARK  241  A    between atoms: _587  and  _589
REMARK  242  A    between atoms: _589  and  _590
REMARK  243  A    between atoms: _589  and  _592
REMARK  244  A    between atoms: _592  and  _593
REMARK  245  A    between atoms: _593  and  _594
REMARK  246  A    between atoms: _596  and  _598
REMARK  247  A    between atoms: _598  and  _599
REMARK  248  A    between atoms: _598  and  _601
REMARK  249  A    between atoms: _601  and  _602
REMARK  250  A    between atoms: _602  and  _603
REMARK  251  A    between atoms: _603  and  _604
REMARK  252  A    between atoms: _604  and  _605
REMARK  253  A    between atoms: _609  and  _611
REMARK  254  A    between atoms: _611  and  _612
REMARK  255  A    between atoms: _611  and  _614
REMARK  256  A    between atoms: _614  and  _615
REMARK                            x       y       z     vdW  Elec       q    Type
REMARK                         _______ _______ _______ _____ _____    ______ ____
ROOT
ATOM      1  CA  LYS A   1      69.075  11.266  29.826  0.00  0.00    +0.145 C 
ENDROOT
BRANCH   1   2
ATOM      2  C   LYS A   1      68.253  12.529  30.084  0.00  0.00    +0.238 C 
ATOM      3  N   THR A   2      67.987  12.798  31.361  0.00  0.00    -0.296 N 
ATOM      4  H   THR A   2      68.331  12.143  32.092  0.00  0.00    +0.150 HD
ATOM      5  O   LYS A   1      67.854  13.227  29.134  0.00  0.00    -0.274 OA
BRANCH   3   6
ATOM      6  CA  THR A   2      67.233  13.975  31.775  0.00  0.00    +0.164 C 
BRANCH   6   7
ATOM      7  C   THR A   2      67.852  14.804  32.882  0.00  0.00    +0.229 C 
ATOM      8  O   THR A   2      67.398  15.909  33.144  0.00  0.00    -0.286 OA
ENDBRANCH   6   7
BRANCH   6   9
ATOM      9  CB  THR A   2      65.815  13.618  32.300  0.00  0.00    +0.136 C 
ATOM     10  CG2 THR A   2      64.967  13.016  31.202  0.00  0.00    +0.034 C 
BRANCH   9  11
ATOM     11  OG1 THR A   2      65.924  12.719  33.416  0.00  0.00    -0.382 OA
ATOM     12  HG1 THR A   2      65.018  12.494  33.747  0.00  0.00    +0.210 HD
ENDBRANCH   9  11
ENDBRANCH   6   9
ENDBRANCH   3   6
ENDBRANCH   1   2
BRANCH   1  13
ATOM     13  N   LYS A   1      70.142  11.203  30.814  0.00  0.00    -0.238 NA
ATOM     14  H   LYS A   1      70.228  10.374  31.435  0.00  0.00    +0.142 HD
ENDBRANCH   1  13
BRANCH   1  15
ATOM     15  CB  LYS A   1      68.173  10.038  29.926  0.00  0.00    +0.026 C 
BRANCH  15  16
ATOM     16  CG  LYS A   1      67.243   9.889  28.736  0.00  0.00    -0.000 C 
BRANCH  16  17
ATOM     17  CD  LYS A   1      66.418   8.625  28.831  0.00  0.00    -0.024 C 
BRANCH  17  18
ATOM     18  CE  LYS A   1      65.447   8.468  27.667  0.00  0.00    -0.086 C 
BRANCH  18  19
ATOM     19  NZ  LYS A   1      64.231   9.338  27.798  0.00  0.00    +0.380 N 
ATOM     20  HZ1 LYS A   1      63.722   9.091  28.671  0.00  0.00    -0.089 HD
ATOM     21  HZ2 LYS A   1      64.522  10.336  27.835  0.00  0.00    -0.089 HD
ATOM     22  HZ3 LYS A   1      63.609   9.188  26.978  0.00  0.00    -0.089 HD
ENDBRANCH  18  19
ENDBRANCH  17  18
ENDBRANCH  16  17
ENDBRANCH  15  16
ENDBRANCH   1  15
TORSDOF 11
REMARK  Name = ../refined-set-2016/1x8r/1x8r_pocket.pdb
REMARK  256 active torsions:
REMARK  status: ('A' for Active; 'I' for Inactive)
REMARK    1  A    between atoms: _1  and  _3
REMARK    2  A    between atoms: _3  and  _4
REMARK    3  A    between atoms: _3  and  _6
REMARK    4  A    between atoms: _6  and  _7
REMARK    5  A    between atoms: _9  and  _11
REMARK    6  A    between atoms: _11  and  _12
REMARK    7  A    between atoms: _11  and  _14
REMARK    8  A    between atoms: _14  and  _15
REMARK    9  A    between atoms: _15  and  _16
REMARK   10  A    between atoms: _16  and  _17
REMARK   11  A    between atoms: _17  and  _18
REMARK   12  A    between atoms: _22  and  _24
REMARK   13  A    between atoms: _24  and  _25
REMARK   14  A    between atoms: _24  and  _27
REMARK   15  A    between atoms: _27  and  _28
REMARK   16  A    between atoms: _30  and  _32
REMARK   17  A    between atoms: _32  and  _33
REMARK   18  A    between atoms: _32  and  _35
REMARK   19  A    between atoms: _38  and  _40
REMARK   20  A    between atoms: _40  and  _41
REMARK   21  A    between atoms: _40  and  _43
REMARK   22  A    between atoms: _43  and  _44
REMARK   23  A    between atoms: _46  and  _48
REMARK   24  A    between atoms: _48  and  _49
REMARK   25  A    between atoms: _48  and  _51
REMARK   26  A    between atoms: _51  and  _52
REMARK   27  A    between atoms: _57  and  _59
REMARK   28  A    between atoms: _59  and  _60
REMARK   29  A    between atoms: _59  and  _62
REMARK   30  A    between atoms: _62  and  _63
REMARK   31  A    between atoms: _63  and  _64
REMARK   32  A    between atoms: _64  and  _65
REMARK   33  A    between atoms: _74  and  _76
REMARK   34  A    between atoms: _76  and  _77
REMARK   35  A    between atoms: _76  and  _79
REMARK   36  A    between atoms: _79  and  _80
REMARK   37  A    between atoms: _83  and  _85
REMARK   38  A    between atoms: _85  and  _86
REMARK   39  A    between atoms: _85  and  _88
REMARK   40  A    between atoms: _88  and  _89
REMARK   41  A    between atoms: _94  and  _96
REMARK   42  A    between atoms: _96  and  _97
REMARK   43  A    between atoms: _100  and  _102
REMARK   44  A    between atoms: _102  and  _103
REMARK   45  A    between atoms: _105  and  _107
REMARK   46  A    between atoms: _107  and  _108
REMARK   47  A    between atoms: _107  and  _110
REMARK   48  A    between atoms: _110  and  _111
REMARK   49  A    between atoms: _114  and  _116
REMARK   50  A    between atoms: _116  and  _117
REMARK   51  A    between atoms: _120  and  _122
REMARK   52  A    between atoms: _122  and  _123
REMARK   53  A    between atoms: _122  and  _125
REMARK   54  A    between atoms: _125  and  _126
REMARK   55  A    between atoms: _126  and  _127
REMARK   56  A    between atoms: _129  and  _131
REMARK   57  A    between atoms: _131  and  _132
REMARK   58  A    between atoms: _131  and  _134
REMARK   59  A    between atoms: _134  and  _135
REMARK   60  A    between atoms: _135  and  _136
REMARK   61  A    between atoms: _136  and  _137
REMARK   62  A    between atoms: _147  and  _148
REMARK   63  A    between atoms: _153  and  _155
REMARK   64  A    between atoms: _155  and  _156
REMARK   65  A    between atoms: _155  and  _158
REMARK   66  A    between atoms: _158  and  _159
REMARK   67  A    between atoms: _159  and  _160
REMARK   68  A    between atoms: _162  and  _164
REMARK   69  A    between atoms: _164  and  _165
REMARK   70  A    between atoms: _164  and  _167
REMARK   71  A    between atoms: _167  and  _168
REMARK   72  A    between atoms: _168  and  _169
REMARK   73  A    between atoms: _169  and  _170
REMARK   74  A    between atoms: _180  and  _181
REMARK   75  A    between atoms: _186  and  _188
REMARK   76  A    between atoms: _188  and  _189
REMARK   77  A    between atoms: _191  and  _193
REMARK   78  A    between atoms: _193  and  _194
REMARK   79  A    between atoms: _193  and  _196
REMARK   80  A    between atoms: _196  and  _197
REMARK   81  A    between atoms: _199  and  _201
REMARK   82  A    between atoms: _201  and  _202
REMARK   83  A    between atoms: _201  and  _204
REMARK   84  A    between atoms: _207  and  _209
REMARK   85  A    between atoms: _209  and  _210
REMARK   86  A    between atoms: _209  and  _212
REMARK   87  A    between atoms: _212  and  _213
REMARK   88  A    between atoms: _215  and  _217
REMARK   89  A    between atoms: _217  and  _218
REMARK   90  A    between atoms: _217  and  _220
REMARK   91  A    between atoms: _220  and  _221
REMARK   92  A    between atoms: _223  and  _225
REMARK   93  A    between atoms: _225  and  _226
REMARK   94  A    between atoms: _225  and  _228
REMARK   95  A    between atoms: _228  and  _229
REMARK   96  A    between atoms: _229  and  _230
REMARK   97  A    between atoms: _235  and  _237
REMARK   98  A    between atoms: _237  and  _238
REMARK   99  A    between atoms: _237  and  _240
REMARK  100  A    between atoms: _240  and  _241
REMARK  101  A    between atoms: _247  and  _249
REMARK  102  A    between atoms: _249  and  _250
REMARK  103  A    between atoms: _249  and  _252
REMARK  104  A    between atoms: _252  and  _253
REMARK  105  A    between atoms: _256  and  _258
REMARK  106  A    between atoms: _258  and  _259
REMARK  107  A    between atoms: _258  and  _261
REMARK  108  A    between atoms: _261  and  _262
REMARK  109  A    between atoms: _265  and  _267
REMARK  110  A    between atoms: _267  and  _268
REMARK  111  A    between atoms: _271  and  _273
REMARK  112  A    between atoms: _273  and  _274
REMARK  113  A    between atoms: _273  and  _276
REMARK  114  A    between atoms: _276  and  _277
REMARK  115  A    between atoms: _277  and  _278
REMARK  116  A    between atoms: _280  and  _282
REMARK  117  A    between atoms: _282  and  _283
REMARK  118  A    between atoms: _282  and  _285
REMARK  119  A    between atoms: _285  and  _286
REMARK  120  A    between atoms: _289  and  _291
REMARK  121  A    between atoms: _291  and  _292
REMARK  122  A    between atoms: _291  and  _294
REMARK  123  A    between atoms: _297  and  _299
REMARK  124  A    between atoms: _299  and  _300
REMARK  125  A    between atoms: _299  and  _302
REMARK  126  A    between atoms: _302  and  _303
REMARK  127  A    between atoms: _305  and  _307
REMARK  128  A    between atoms: _307  and  _308
REMARK  129  A    between atoms: _307  and  _310
REMARK  130  A    between atoms: _310  and  _311
REMARK  131  A    between atoms: _311  and  _312
REMARK  132  A    between atoms: _312  and  _313
REMARK  133  A    between atoms: _313  and  _314
REMARK  134  A    between atoms: _319  and  _320
REMARK  135  A    between atoms: _325  and  _327
REMARK  136  A    between atoms: _327  and  _328
REMARK  137  A    between atoms: _327  and  _330
REMARK  138  A    between atoms: _330  and  _331
REMARK  139  A    between atoms: _336  and  _337
REMARK  140  A    between atoms: _339  and  _341
REMARK  141  A    between atoms: _341  and  _342
REMARK  142  A    between atoms: _341  and  _344
REMARK  143  A    between atoms: _344  and  _345
REMARK  144  A    between atoms: _348  and  _350
REMARK  145  A    between atoms: _350  and  _351
REMARK  146  A    between atoms: _350  and  _353
REMARK  147  A    between atoms: _353  and  _354
REMARK  148  A    between atoms: _357  and  _359
REMARK  149  A    between atoms: _359  and  _360
REMARK  150  A    between atoms: _359  and  _362
REMARK  151  A    between atoms: _362  and  _363
REMARK  152  A    between atoms: _366  and  _368
REMARK  153  A    between atoms: _368  and  _369
REMARK  154  A    between atoms: _368  and  _371
REMARK  155  A    between atoms: _371  and  _372
REMARK  156  A    between atoms: _375  and  _377
REMARK  157  A    between atoms: _377  and  _378
REMARK  158  A    between atoms: _377  and  _380
REMARK  159  A    between atoms: _380  and  _381
REMARK  160  A    between atoms: _383  and  _385
REMARK  161  A    between atoms: _385  and  _386
REMARK  162  A    between atoms: _385  and  _388
REMARK  163  A    between atoms: _388  and  _389
REMARK  164  A    between atoms: _394  and  _395
REMARK  165  A    between atoms: _397  and  _399
REMARK  166  A    between atoms: _399  and  _400
REMARK  167  A    between atoms: _399  and  _402
REMARK  168  A    between atoms: _402  and  _403
REMARK  169  A    between atoms: _406  and  _408
REMARK  170  A    between atoms: _408  and  _409
REMARK  171  A    between atoms: _408  and  _411
REMARK  172  A    between atoms: _411  and  _412
REMARK  173  A    between atoms: _417  and  _419
REMARK  174  A    between atoms: _419  and  _420
REMARK  175  A    between atoms: _419  and  _422
REMARK  176  A    between atoms: _422  and  _423
REMARK  177  A    between atoms: _427  and  _428
REMARK  178  A    between atoms: _433  and  _435
REMARK  179  A    between atoms: _435  and  _436
REMARK  180  A    between atoms: _435  and  _438
REMARK  181  A    between atoms: _438  and  _439
REMARK  182  A    between atoms: _442  and  _444
REMARK  183  A    between atoms: _444  and  _445
REMARK  184  A    between atoms: _448  and  _450
REMARK  185  A    between atoms: _450  and  _451
REMARK  186  A    between atoms: _450  and  _453
REMARK  187  A    between atoms: _453  and  _454
REMARK  188  A    between atoms: _454  and  _455
REMARK  189  A    between atoms: _457  and  _459
REMARK  190  A    between atoms: _459  and  _460
REMARK  191  A    between atoms: _459  and  _462
REMARK  192  A    between atoms: _462  and  _463
REMARK  193  A    between atoms: _468  and  _470
REMARK  194  A    between atoms: _470  and  _471
REMARK  195  A    between atoms: _470  and  _473
REMARK  196  A    between atoms: _473  and  _474
REMARK  197  A    between atoms: _484  and  _486
REMARK  198  A    between atoms: _486  and  _487
REMARK  199  A    between atoms: _486  and  _489
REMARK  200  A    between atoms: _492  and  _494
REMARK  201  A    between atoms: _494  and  _495
REMARK  202  A    between atoms: _494  and  _497
REMARK  203  A    between atoms: _497  and  _498
REMARK  204  A    between atoms: _498  and  _499
REMARK  205  A    between atoms: _499  and  _500
REMARK  206  A    between atoms: _500  and  _501
REMARK  207  A    between atoms: _505  and  _507
REMARK  208  A    between atoms: _507  and  _508
REMARK  209  A    between atoms: _507  and  _510
REMARK  210  A    between atoms: _510  and  _511
REMARK  211  A    between atoms: _511  and  _512
REMARK  212  A    between atoms: _515  and  _517
REMARK  213  A    between atoms: _517  and  _518
REMARK  214  A    between atoms: _517  and  _520
REMARK  215  A    between atoms: _520  and  _521
REMARK  216  A    between atoms: _524  and  _526
REMARK  217  A    between atoms: _526  and  _527
REMARK  218  A    between atoms: _526  and  _529
REMARK  219  A    between atoms: _529  and  _530
REMARK  220  A    between atoms: _530  and  _531
REMARK  221  A    between atoms: _531  and  _532
REMARK  222  A    between atoms: _541  and  _543
REMARK  223  A    between atoms: _543  and  _544
REMARK  224  A    between atoms: _543  and  _546
REMARK  225  A    between atoms: _546  and  _547
REMARK  226  A    between atoms: _550  and  _552
REMARK  227  A    between atoms: _552  and  _553
REMARK  228  A    between atoms: _552  and  _555
REMARK  229  A    between atoms: _555  and  _556
REMARK  230  A    between atoms: _561  and  _563
REMARK  231  A    between atoms: _563  and  _564
REMARK  232  A    between atoms: _563  and  _566
REMARK  233  A    between atoms: _566  and  _567
REMARK  234  A    between atoms: _567  and  _568
REMARK  235  A    between atoms: _568  and  _569
REMARK  236  A    between atoms: _578  and  _580
REMARK  237  A    between atoms: _580  and  _581
REMARK  238  A    between atoms: _580  and  _583
REMARK  239  A    between atoms: _583  and  _584
REMARK  240  A    between atoms: _584  and  _585
REMARK  241  A    between atoms: _587  and  _589
REMARK  242  A    between atoms: _589  and  _590
REMARK  243  A    between atoms: _589  and  _592
REMARK  244  A    between atoms: _592  and  _593
REMARK  245  A    between atoms: _593  and  _594
REMARK  246  A    between atoms: _596  and  _598
REMARK  247  A    between atoms: _598  and  _599
REMARK  248  A    between atoms: _598  and  _601
REMARK  249  A    between atoms: _601  and  _602
REMARK  250  A    between atoms: _602  and  _603
REMARK  251  A    between atoms: _603  and  _604
REMARK  252  A    between atoms: _604  and  _605
REMARK  253  A    between atoms: _609  and  _611
REMARK  254  A    between atoms: _611  and  _612
REMARK  255  A    between atoms: _611  and  _614
REMARK  256  A    between atoms: _614  and  _615
REMARK                            x       y       z     vdW  Elec       q    Type
REMARK                         _______ _______ _______ _____ _____    ______ ____
ROOT
ATOM      1  O   HOH     1      61.837  14.324  32.648  0.00  0.00    +0.000 OA
ENDROOT
TORSDOF 0
REMARK  Name = ../refined-set-2016/1x8r/1x8r_pocket.pdb
REMARK  256 active torsions:
REMARK  status: ('A' for Active; 'I' for Inactive)
REMARK    1  A    between atoms: _1  and  _3
REMARK    2  A    between atoms: _3  and  _4
REMARK    3  A    between atoms: _3  and  _6
REMARK    4  A    between atoms: _6  and  _7
REMARK    5  A    between atoms: _9  and  _11
REMARK    6  A    between atoms: _11  and  _12
REMARK    7  A    between atoms: _11  and  _14
REMARK    8  A    between atoms: _14  and  _15
REMARK    9  A    between atoms: _15  and  _16
REMARK   10  A    between atoms: _16  and  _17
REMARK   11  A    between atoms: _17  and  _18
REMARK   12  A    between atoms: _22  and  _24
REMARK   13  A    between atoms: _24  and  _25
REMARK   14  A    between atoms: _24  and  _27
REMARK   15  A    between atoms: _27  and  _28
REMARK   16  A    between atoms: _30  and  _32
REMARK   17  A    between atoms: _32  and  _33
REMARK   18  A    between atoms: _32  and  _35
REMARK   19  A    between atoms: _38  and  _40
REMARK   20  A    between atoms: _40  and  _41
REMARK   21  A    between atoms: _40  and  _43
REMARK   22  A    between atoms: _43  and  _44
REMARK   23  A    between atoms: _46  and  _48
REMARK   24  A    between atoms: _48  and  _49
REMARK   25  A    between atoms: _48  and  _51
REMARK   26  A    between atoms: _51  and  _52
REMARK   27  A    between atoms: _57  and  _59
REMARK   28  A    between atoms: _59  and  _60
REMARK   29  A    between atoms: _59  and  _62
REMARK   30  A    between atoms: _62  and  _63
REMARK   31  A    between atoms: _63  and  _64
REMARK   32  A    between atoms: _64  and  _65
REMARK   33  A    between atoms: _74  and  _76
REMARK   34  A    between atoms: _76  and  _77
REMARK   35  A    between atoms: _76  and  _79
REMARK   36  A    between atoms: _79  and  _80
REMARK   37  A    between atoms: _83  and  _85
REMARK   38  A    between atoms: _85  and  _86
REMARK   39  A    between atoms: _85  and  _88
REMARK   40  A    between atoms: _88  and  _89
REMARK   41  A    between atoms: _94  and  _96
REMARK   42  A    between atoms: _96  and  _97
REMARK   43  A    between atoms: _100  and  _102
REMARK   44  A    between atoms: _102  and  _103
REMARK   45  A    between atoms: _105  and  _107
REMARK   46  A    between atoms: _107  and  _108
REMARK   47  A    between atoms: _107  and  _110
REMARK   48  A    between atoms: _110  and  _111
REMARK   49  A    between atoms: _114  and  _116
REMARK   50  A    between atoms: _116  and  _117
REMARK   51  A    between atoms: _120  and  _122
REMARK   52  A    between atoms: _122  and  _123
REMARK   53  A    between atoms: _122  and  _125
REMARK   54  A    between atoms: _125  and  _126
REMARK   55  A    between atoms: _126  and  _127
REMARK   56  A    between atoms: _129  and  _131
REMARK   57  A    between atoms: _131  and  _132
REMARK   58  A    between atoms: _131  and  _134
REMARK   59  A    between atoms: _134  and  _135
REMARK   60  A    between atoms: _135  and  _136
REMARK   61  A    between atoms: _136  and  _137
REMARK   62  A    between atoms: _147  and  _148
REMARK   63  A    between atoms: _153  and  _155
REMARK   64  A    between atoms: _155  and  _156
REMARK   65  A    between atoms: _155  and  _158
REMARK   66  A    between atoms: _158  and  _159
REMARK   67  A    between atoms: _159  and  _160
REMARK   68  A    between atoms: _162  and  _164
REMARK   69  A    between atoms: _164  and  _165
REMARK   70  A    between atoms: _164  and  _167
REMARK   71  A    between atoms: _167  and  _168
REMARK   72  A    between atoms: _168  and  _169
REMARK   73  A    between atoms: _169  and  _170
REMARK   74  A    between atoms: _180  and  _181
REMARK   75  A    between atoms: _186  and  _188
REMARK   76  A    between atoms: _188  and  _189
REMARK   77  A    between atoms: _191  and  _193
REMARK   78  A    between atoms: _193  and  _194
REMARK   79  A    between atoms: _193  and  _196
REMARK   80  A    between atoms: _196  and  _197
REMARK   81  A    between atoms: _199  and  _201
REMARK   82  A    between atoms: _201  and  _202
REMARK   83  A    between atoms: _201  and  _204
REMARK   84  A    between atoms: _207  and  _209
REMARK   85  A    between atoms: _209  and  _210
REMARK   86  A    between atoms: _209  and  _212
REMARK   87  A    between atoms: _212  and  _213
REMARK   88  A    between atoms: _215  and  _217
REMARK   89  A    between atoms: _217  and  _218
REMARK   90  A    between atoms: _217  and  _220
REMARK   91  A    between atoms: _220  and  _221
REMARK   92  A    between atoms: _223  and  _225
REMARK   93  A    between atoms: _225  and  _226
REMARK   94  A    between atoms: _225  and  _228
REMARK   95  A    between atoms: _228  and  _229
REMARK   96  A    between atoms: _229  and  _230
REMARK   97  A    between atoms: _235  and  _237
REMARK   98  A    between atoms: _237  and  _238
REMARK   99  A    between atoms: _237  and  _240
REMARK  100  A    between atoms: _240  and  _241
REMARK  101  A    between atoms: _247  and  _249
REMARK  102  A    between atoms: _249  and  _250
REMARK  103  A    between atoms: _249  and  _252
REMARK  104  A    between atoms: _252  and  _253
REMARK  105  A    between atoms: _256  and  _258
REMARK  106  A    between atoms: _258  and  _259
REMARK  107  A    between atoms: _258  and  _261
REMARK  108  A    between atoms: _261  and  _262
REMARK  109  A    between atoms: _265  and  _267
REMARK  110  A    between atoms: _267  and  _268
REMARK  111  A    between atoms: _271  and  _273
REMARK  112  A    between atoms: _273  and  _274
REMARK  113  A    between atoms: _273  and  _276
REMARK  114  A    between atoms: _276  and  _277
REMARK  115  A    between atoms: _277  and  _278
REMARK  116  A    between atoms: _280  and  _282
REMARK  117  A    between atoms: _282  and  _283
REMARK  118  A    between atoms: _282  and  _285
REMARK  119  A    between atoms: _285  and  _286
REMARK  120  A    between atoms: _289  and  _291
REMARK  121  A    between atoms: _291  and  _292
REMARK  122  A    between atoms: _291  and  _294
REMARK  123  A    between atoms: _297  and  _299
REMARK  124  A    between atoms: _299  and  _300
REMARK  125  A    between atoms: _299  and  _302
REMARK  126  A    between atoms: _302  and  _303
REMARK  127  A    between atoms: _305  and  _307
REMARK  128  A    between atoms: _307  and  _308
REMARK  129  A    between atoms: _307  and  _310
REMARK  130  A    between atoms: _310  and  _311
REMARK  131  A    between atoms: _311  and  _312
REMARK  132  A    between atoms: _312  and  _313
REMARK  133  A    between atoms: _313  and  _314
REMARK  134  A    between atoms: _319  and  _320
REMARK  135  A    between atoms: _325  and  _327
REMARK  136  A    between atoms: _327  and  _328
REMARK  137  A    between atoms: _327  and  _330
REMARK  138  A    between atoms: _330  and  _331
REMARK  139  A    between atoms: _336  and  _337
REMARK  140  A    between atoms: _339  and  _341
REMARK  141  A    between atoms: _341  and  _342
REMARK  142  A    between atoms: _341  and  _344
REMARK  143  A    between atoms: _344  and  _345
REMARK  144  A    between atoms: _348  and  _350
REMARK  145  A    between atoms: _350  and  _351
REMARK  146  A    between atoms: _350  and  _353
REMARK  147  A    between atoms: _353  and  _354
REMARK  148  A    between atoms: _357  and  _359
REMARK  149  A    between atoms: _359  and  _360
REMARK  150  A    between atoms: _359  and  _362
REMARK  151  A    between atoms: _362  and  _363
REMARK  152  A    between atoms: _366  and  _368
REMARK  153  A    between atoms: _368  and  _369
REMARK  154  A    between atoms: _368  and  _371
REMARK  155  A    between atoms: _371  and  _372
REMARK  156  A    between atoms: _375  and  _377
REMARK  157  A    between atoms: _377  and  _378
REMARK  158  A    between atoms: _377  and  _380
REMARK  159  A    between atoms: _380  and  _381
REMARK  160  A    between atoms: _383  and  _385
REMARK  161  A    between atoms: _385  and  _386
REMARK  162  A    between atoms: _385  and  _388
REMARK  163  A    between atoms: _388  and  _389
REMARK  164  A    between atoms: _394  and  _395
REMARK  165  A    between atoms: _397  and  _399
REMARK  166  A    between atoms: _399  and  _400
REMARK  167  A    between atoms: _399  and  _402
REMARK  168  A    between atoms: _402  and  _403
REMARK  169  A    between atoms: _406  and  _408
REMARK  170  A    between atoms: _408  and  _409
REMARK  171  A    between atoms: _408  and  _411
REMARK  172  A    between atoms: _411  and  _412
REMARK  173  A    between atoms: _417  and  _419
REMARK  174  A    between atoms: _419  and  _420
REMARK  175  A    between atoms: _419  and  _422
REMARK  176  A    between atoms: _422  and  _423
REMARK  177  A    between atoms: _427  and  _428
REMARK  178  A    between atoms: _433  and  _435
REMARK  179  A    between atoms: _435  and  _436
REMARK  180  A    between atoms: _435  and  _438
REMARK  181  A    between atoms: _438  and  _439
REMARK  182  A    between atoms: _442  and  _444
REMARK  183  A    between atoms: _444  and  _445
REMARK  184  A    between atoms: _448  and  _450
REMARK  185  A    between atoms: _450  and  _451
REMARK  186  A    between atoms: _450  and  _453
REMARK  187  A    between atoms: _453  and  _454
REMARK  188  A    between atoms: _454  and  _455
REMARK  189  A    between atoms: _457  and  _459
REMARK  190  A    between atoms: _459  and  _460
REMARK  191  A    between atoms: _459  and  _462
REMARK  192  A    between atoms: _462  and  _463
REMARK  193  A    between atoms: _468  and  _470
REMARK  194  A    between atoms: _470  and  _471
REMARK  195  A    between atoms: _470  and  _473
REMARK  196  A    between atoms: _473  and  _474
REMARK  197  A    between atoms: _484  and  _486
REMARK  198  A    between atoms: _486  and  _487
REMARK  199  A    between atoms: _486  and  _489
REMARK  200  A    between atoms: _492  and  _494
REMARK  201  A    between atoms: _494  and  _495
REMARK  202  A    between atoms: _494  and  _497
REMARK  203  A    between atoms: _497  and  _498
REMARK  204  A    between atoms: _498  and  _499
REMARK  205  A    between atoms: _499  and  _500
REMARK  206  A    between atoms: _500  and  _501
REMARK  207  A    between atoms: _505  and  _507
REMARK  208  A    between atoms: _507  and  _508
REMARK  209  A    between atoms: _507  and  _510
REMARK  210  A    between atoms: _510  and  _511
REMARK  211  A    between atoms: _511  and  _512
REMARK  212  A    between atoms: _515  and  _517
REMARK  213  A    between atoms: _517  and  _518
REMARK  214  A    between atoms: _517  and  _520
REMARK  215  A    between atoms: _520  and  _521
REMARK  216  A    between atoms: _524  and  _526
REMARK  217  A    between atoms: _526  and  _527
REMARK  218  A    between atoms: _526  and  _529
REMARK  219  A    between atoms: _529  and  _530
REMARK  220  A    between atoms: _530  and  _531
REMARK  221  A    between atoms: _531  and  _532
REMARK  222  A    between atoms: _541  and  _543
REMARK  223  A    between atoms: _543  and  _544
REMARK  224  A    between atoms: _543  and  _546
REMARK  225  A    between atoms: _546  and  _547
REMARK  226  A    between atoms: _550  and  _552
REMARK  227  A    between atoms: _552  and  _553
REMARK  228  A    between atoms: _552  and  _555
REMARK  229  A    between atoms: _555  and  _556
REMARK  230  A    between atoms: _561  and  _563
REMARK  231  A    between atoms: _563  and  _564
REMARK  232  A    between atoms: _563  and  _566
REMARK  233  A    between atoms: _566  and  _567
REMARK  234  A    between atoms: _567  and  _568
REMARK  235  A    between atoms: _568  and  _569
REMARK  236  A    between atoms: _578  and  _580
REMARK  237  A    between atoms: _580  and  _581
REMARK  238  A    between atoms: _580  and  _583
REMARK  239  A    between atoms: _583  and  _584
REMARK  240  A    between atoms: _584  and  _585
REMARK  241  A    between atoms: _587  and  _589
REMARK  242  A    between atoms: _589  and  _590
REMARK  243  A    between atoms: _589  and  _592
REMARK  244  A    between atoms: _592  and  _593
REMARK  245  A    between atoms: _593  and  _594
REMARK  246  A    between atoms: _596  and  _598
REMARK  247  A    between atoms: _598  and  _599
REMARK  248  A    between atoms: _598  and  _601
REMARK  249  A    between atoms: _601  and  _602
REMARK  250  A    between atoms: _602  and  _603
REMARK  251  A    between atoms: _603  and  _604
REMARK  252  A    between atoms: _604  and  _605
REMARK  253  A    between atoms: _609  and  _611
REMARK  254  A    between atoms: _611  and  _612
REMARK  255  A    between atoms: _611  and  _614
REMARK  256  A    between atoms: _614  and  _615
REMARK                            x       y       z     vdW  Elec       q    Type
REMARK                         _______ _______ _______ _____ _____    ______ ____
ROOT
ATOM      1  O   HOH     1      52.730  12.970  25.167  0.00  0.00    +0.000 OA
ENDROOT
TORSDOF 0
REMARK  Name = ../refined-set-2016/1x8r/1x8r_pocket.pdb
REMARK  256 active torsions:
REMARK  status: ('A' for Active; 'I' for Inactive)
REMARK    1  A    between atoms: _1  and  _3
REMARK    2  A    between atoms: _3  and  _4
REMARK    3  A    between atoms: _3  and  _6
REMARK    4  A    between atoms: _6  and  _7
REMARK    5  A    between atoms: _9  and  _11
REMARK    6  A    between atoms: _11  and  _12
REMARK    7  A    between atoms: _11  and  _14
REMARK    8  A    between atoms: _14  and  _15
REMARK    9  A    between atoms: _15  and  _16
REMARK   10  A    between atoms: _16  and  _17
REMARK   11  A    between atoms: _17  and  _18
REMARK   12  A    between atoms: _22  and  _24
REMARK   13  A    between atoms: _24  and  _25
REMARK   14  A    between atoms: _24  and  _27
REMARK   15  A    between atoms: _27  and  _28
REMARK   16  A    between atoms: _30  and  _32
REMARK   17  A    between atoms: _32  and  _33
REMARK   18  A    between atoms: _32  and  _35
REMARK   19  A    between atoms: _38  and  _40
REMARK   20  A    between atoms: _40  and  _41
REMARK   21  A    between atoms: _40  and  _43
REMARK   22  A    between atoms: _43  and  _44
REMARK   23  A    between atoms: _46  and  _48
REMARK   24  A    between atoms: _48  and  _49
REMARK   25  A    between atoms: _48  and  _51
REMARK   26  A    between atoms: _51  and  _52
REMARK   27  A    between atoms: _57  and  _59
REMARK   28  A    between atoms: _59  and  _60
REMARK   29  A    between atoms: _59  and  _62
REMARK   30  A    between atoms: _62  and  _63
REMARK   31  A    between atoms: _63  and  _64
REMARK   32  A    between atoms: _64  and  _65
REMARK   33  A    between atoms: _74  and  _76
REMARK   34  A    between atoms: _76  and  _77
REMARK   35  A    between atoms: _76  and  _79
REMARK   36  A    between atoms: _79  and  _80
REMARK   37  A    between atoms: _83  and  _85
REMARK   38  A    between atoms: _85  and  _86
REMARK   39  A    between atoms: _85  and  _88
REMARK   40  A    between atoms: _88  and  _89
REMARK   41  A    between atoms: _94  and  _96
REMARK   42  A    between atoms: _96  and  _97
REMARK   43  A    between atoms: _100  and  _102
REMARK   44  A    between atoms: _102  and  _103
REMARK   45  A    between atoms: _105  and  _107
REMARK   46  A    between atoms: _107  and  _108
REMARK   47  A    between atoms: _107  and  _110
REMARK   48  A    between atoms: _110  and  _111
REMARK   49  A    between atoms: _114  and  _116
REMARK   50  A    between atoms: _116  and  _117
REMARK   51  A    between atoms: _120  and  _122
REMARK   52  A    between atoms: _122  and  _123
REMARK   53  A    between atoms: _122  and  _125
REMARK   54  A    between atoms: _125  and  _126
REMARK   55  A    between atoms: _126  and  _127
REMARK   56  A    between atoms: _129  and  _131
REMARK   57  A    between atoms: _131  and  _132
REMARK   58  A    between atoms: _131  and  _134
REMARK   59  A    between atoms: _134  and  _135
REMARK   60  A    between atoms: _135  and  _136
REMARK   61  A    between atoms: _136  and  _137
REMARK   62  A    between atoms: _147  and  _148
REMARK   63  A    between atoms: _153  and  _155
REMARK   64  A    between atoms: _155  and  _156
REMARK   65  A    between atoms: _155  and  _158
REMARK   66  A    between atoms: _158  and  _159
REMARK   67  A    between atoms: _159  and  _160
REMARK   68  A    between atoms: _162  and  _164
REMARK   69  A    between atoms: _164  and  _165
REMARK   70  A    between atoms: _164  and  _167
REMARK   71  A    between atoms: _167  and  _168
REMARK   72  A    between atoms: _168  and  _169
REMARK   73  A    between atoms: _169  and  _170
REMARK   74  A    between atoms: _180  and  _181
REMARK   75  A    between atoms: _186  and  _188
REMARK   76  A    between atoms: _188  and  _189
REMARK   77  A    between atoms: _191  and  _193
REMARK   78  A    between atoms: _193  and  _194
REMARK   79  A    between atoms: _193  and  _196
REMARK   80  A    between atoms: _196  and  _197
REMARK   81  A    between atoms: _199  and  _201
REMARK   82  A    between atoms: _201  and  _202
REMARK   83  A    between atoms: _201  and  _204
REMARK   84  A    between atoms: _207  and  _209
REMARK   85  A    between atoms: _209  and  _210
REMARK   86  A    between atoms: _209  and  _212
REMARK   87  A    between atoms: _212  and  _213
REMARK   88  A    between atoms: _215  and  _217
REMARK   89  A    between atoms: _217  and  _218
REMARK   90  A    between atoms: _217  and  _220
REMARK   91  A    between atoms: _220  and  _221
REMARK   92  A    between atoms: _223  and  _225
REMARK   93  A    between atoms: _225  and  _226
REMARK   94  A    between atoms: _225  and  _228
REMARK   95  A    between atoms: _228  and  _229
REMARK   96  A    between atoms: _229  and  _230
REMARK   97  A    between atoms: _235  and  _237
REMARK   98  A    between atoms: _237  and  _238
REMARK   99  A    between atoms: _237  and  _240
REMARK  100  A    between atoms: _240  and  _241
REMARK  101  A    between atoms: _247  and  _249
REMARK  102  A    between atoms: _249  and  _250
REMARK  103  A    between atoms: _249  and  _252
REMARK  104  A    between atoms: _252  and  _253
REMARK  105  A    between atoms: _256  and  _258
REMARK  106  A    between atoms: _258  and  _259
REMARK  107  A    between atoms: _258  and  _261
REMARK  108  A    between atoms: _261  and  _262
REMARK  109  A    between atoms: _265  and  _267
REMARK  110  A    between atoms: _267  and  _268
REMARK  111  A    between atoms: _271  and  _273
REMARK  112  A    between atoms: _273  and  _274
REMARK  113  A    between atoms: _273  and  _276
REMARK  114  A    between atoms: _276  and  _277
REMARK  115  A    between atoms: _277  and  _278
REMARK  116  A    between atoms: _280  and  _282
REMARK  117  A    between atoms: _282  and  _283
REMARK  118  A    between atoms: _282  and  _285
REMARK  119  A    between atoms: _285  and  _286
REMARK  120  A    between atoms: _289  and  _291
REMARK  121  A    between atoms: _291  and  _292
REMARK  122  A    between atoms: _291  and  _294
REMARK  123  A    between atoms: _297  and  _299
REMARK  124  A    between atoms: _299  and  _300
REMARK  125  A    between atoms: _299  and  _302
REMARK  126  A    between atoms: _302  and  _303
REMARK  127  A    between atoms: _305  and  _307
REMARK  128  A    between atoms: _307  and  _308
REMARK  129  A    between atoms: _307  and  _310
REMARK  130  A    between atoms: _310  and  _311
REMARK  131  A    between atoms: _311  and  _312
REMARK  132  A    between atoms: _312  and  _313
REMARK  133  A    between atoms: _313  and  _314
REMARK  134  A    between atoms: _319  and  _320
REMARK  135  A    between atoms: _325  and  _327
REMARK  136  A    between atoms: _327  and  _328
REMARK  137  A    between atoms: _327  and  _330
REMARK  138  A    between atoms: _330  and  _331
REMARK  139  A    between atoms: _336  and  _337
REMARK  140  A    between atoms: _339  and  _341
REMARK  141  A    between atoms: _341  and  _342
REMARK  142  A    between atoms: _341  and  _344
REMARK  143  A    between atoms: _344  and  _345
REMARK  144  A    between atoms: _348  and  _350
REMARK  145  A    between atoms: _350  and  _351
REMARK  146  A    between atoms: _350  and  _353
REMARK  147  A    between atoms: _353  and  _354
REMARK  148  A    between atoms: _357  and  _359
REMARK  149  A    between atoms: _359  and  _360
REMARK  150  A    between atoms: _359  and  _362
REMARK  151  A    between atoms: _362  and  _363
REMARK  152  A    between atoms: _366  and  _368
REMARK  153  A    between atoms: _368  and  _369
REMARK  154  A    between atoms: _368  and  _371
REMARK  155  A    between atoms: _371  and  _372
REMARK  156  A    between atoms: _375  and  _377
REMARK  157  A    between atoms: _377  and  _378
REMARK  158  A    between atoms: _377  and  _380
REMARK  159  A    between atoms: _380  and  _381
REMARK  160  A    between atoms: _383  and  _385
REMARK  161  A    between atoms: _385  and  _386
REMARK  162  A    between atoms: _385  and  _388
REMARK  163  A    between atoms: _388  and  _389
REMARK  164  A    between atoms: _394  and  _395
REMARK  165  A    between atoms: _397  and  _399
REMARK  166  A    between atoms: _399  and  _400
REMARK  167  A    between atoms: _399  and  _402
REMARK  168  A    between atoms: _402  and  _403
REMARK  169  A    between atoms: _406  and  _408
REMARK  170  A    between atoms: _408  and  _409
REMARK  171  A    between atoms: _408  and  _411
REMARK  172  A    between atoms: _411  and  _412
REMARK  173  A    between atoms: _417  and  _419
REMARK  174  A    between atoms: _419  and  _420
REMARK  175  A    between atoms: _419  and  _422
REMARK  176  A    between atoms: _422  and  _423
REMARK  177  A    between atoms: _427  and  _428
REMARK  178  A    between atoms: _433  and  _435
REMARK  179  A    between atoms: _435  and  _436
REMARK  180  A    between atoms: _435  and  _438
REMARK  181  A    between atoms: _438  and  _439
REMARK  182  A    between atoms: _442  and  _444
REMARK  183  A    between atoms: _444  and  _445
REMARK  184  A    between atoms: _448  and  _450
REMARK  185  A    between atoms: _450  and  _451
REMARK  186  A    between atoms: _450  and  _453
REMARK  187  A    between atoms: _453  and  _454
REMARK  188  A    between atoms: _454  and  _455
REMARK  189  A    between atoms: _457  and  _459
REMARK  190  A    between atoms: _459  and  _460
REMARK  191  A    between atoms: _459  and  _462
REMARK  192  A    between atoms: _462  and  _463
REMARK  193  A    between atoms: _468  and  _470
REMARK  194  A    between atoms: _470  and  _471
REMARK  195  A    between atoms: _470  and  _473
REMARK  196  A    between atoms: _473  and  _474
REMARK  197  A    between atoms: _484  and  _486
REMARK  198  A    between atoms: _486  and  _487
REMARK  199  A    between atoms: _486  and  _489
REMARK  200  A    between atoms: _492  and  _494
REMARK  201  A    between atoms: _494  and  _495
REMARK  202  A    between atoms: _494  and  _497
REMARK  203  A    between atoms: _497  and  _498
REMARK  204  A    between atoms: _498  and  _499
REMARK  205  A    between atoms: _499  and  _500
REMARK  206  A    between atoms: _500  and  _501
REMARK  207  A    between atoms: _505  and  _507
REMARK  208  A    between atoms: _507  and  _508
REMARK  209  A    between atoms: _507  and  _510
REMARK  210  A    between atoms: _510  and  _511
REMARK  211  A    between atoms: _511  and  _512
REMARK  212  A    between atoms: _515  and  _517
REMARK  213  A    between atoms: _517  and  _518
REMARK  214  A    between atoms: _517  and  _520
REMARK  215  A    between atoms: _520  and  _521
REMARK  216  A    between atoms: _524  and  _526
REMARK  217  A    between atoms: _526  and  _527
REMARK  218  A    between atoms: _526  and  _529
REMARK  219  A    between atoms: _529  and  _530
REMARK  220  A    between atoms: _530  and  _531
REMARK  221  A    between atoms: _531  and  _532
REMARK  222  A    between atoms: _541  and  _543
REMARK  223  A    between atoms: _543  and  _544
REMARK  224  A    between atoms: _543  and  _546
REMARK  225  A    between atoms: _546  and  _547
REMARK  226  A    between atoms: _550  and  _552
REMARK  227  A    between atoms: _552  and  _553
REMARK  228  A    between atoms: _552  and  _555
REMARK  229  A    between atoms: _555  and  _556
REMARK  230  A    between atoms: _561  and  _563
REMARK  231  A    between atoms: _563  and  _564
REMARK  232  A    between atoms: _563  and  _566
REMARK  233  A    between atoms: _566  and  _567
REMARK  234  A    between atoms: _567  and  _568
REMARK  235  A    between atoms: _568  and  _569
REMARK  236  A    between atoms: _578  and  _580
REMARK  237  A    between atoms: _580  and  _581
REMARK  238  A    between atoms: _580  and  _583
REMARK  239  A    between atoms: _583  and  _584
REMARK  240  A    between atoms: _584  and  _585
REMARK  241  A    between atoms: _587  and  _589
REMARK  242  A    between atoms: _589  and  _590
REMARK  243  A    between atoms: _589  and  _592
REMARK  244  A    between atoms: _592  and  _593
REMARK  245  A    between atoms: _593  and  _594
REMARK  246  A    between atoms: _596  and  _598
REMARK  247  A    between atoms: _598  and  _599
REMARK  248  A    between atoms: _598  and  _601
REMARK  249  A    between atoms: _601  and  _602
REMARK  250  A    between atoms: _602  and  _603
REMARK  251  A    between atoms: _603  and  _604
REMARK  252  A    between atoms: _604  and  _605
REMARK  253  A    between atoms: _609  and  _611
REMARK  254  A    between atoms: _611  and  _612
REMARK  255  A    between atoms: _611  and  _614
REMARK  256  A    between atoms: _614  and  _615
REMARK                            x       y       z     vdW  Elec       q    Type
REMARK                         _______ _______ _______ _____ _____    ______ ____
ROOT
ATOM      1  O   HOH     1      54.701  11.040  34.960  0.00  0.00    +0.000 OA
ENDROOT
TORSDOF 0
REMARK  Name = ../refined-set-2016/1x8r/1x8r_pocket.pdb
REMARK  256 active torsions:
REMARK  status: ('A' for Active; 'I' for Inactive)
REMARK    1  A    between atoms: _1  and  _3
REMARK    2  A    between atoms: _3  and  _4
REMARK    3  A    between atoms: _3  and  _6
REMARK    4  A    between atoms: _6  and  _7
REMARK    5  A    between atoms: _9  and  _11
REMARK    6  A    between atoms: _11  and  _12
REMARK    7  A    between atoms: _11  and  _14
REMARK    8  A    between atoms: _14  and  _15
REMARK    9  A    between atoms: _15  and  _16
REMARK   10  A    between atoms: _16  and  _17
REMARK   11  A    between atoms: _17  and  _18
REMARK   12  A    between atoms: _22  and  _24
REMARK   13  A    between atoms: _24  and  _25
REMARK   14  A    between atoms: _24  and  _27
REMARK   15  A    between atoms: _27  and  _28
REMARK   16  A    between atoms: _30  and  _32
REMARK   17  A    between atoms: _32  and  _33
REMARK   18  A    between atoms: _32  and  _35
REMARK   19  A    between atoms: _38  and  _40
REMARK   20  A    between atoms: _40  and  _41
REMARK   21  A    between atoms: _40  and  _43
REMARK   22  A    between atoms: _43  and  _44
REMARK   23  A    between atoms: _46  and  _48
REMARK   24  A    between atoms: _48  and  _49
REMARK   25  A    between atoms: _48  and  _51
REMARK   26  A    between atoms: _51  and  _52
REMARK   27  A    between atoms: _57  and  _59
REMARK   28  A    between atoms: _59  and  _60
REMARK   29  A    between atoms: _59  and  _62
REMARK   30  A    between atoms: _62  and  _63
REMARK   31  A    between atoms: _63  and  _64
REMARK   32  A    between atoms: _64  and  _65
REMARK   33  A    between atoms: _74  and  _76
REMARK   34  A    between atoms: _76  and  _77
REMARK   35  A    between atoms: _76  and  _79
REMARK   36  A    between atoms: _79  and  _80
REMARK   37  A    between atoms: _83  and  _85
REMARK   38  A    between atoms: _85  and  _86
REMARK   39  A    between atoms: _85  and  _88
REMARK   40  A    between atoms: _88  and  _89
REMARK   41  A    between atoms: _94  and  _96
REMARK   42  A    between atoms: _96  and  _97
REMARK   43  A    between atoms: _100  and  _102
REMARK   44  A    between atoms: _102  and  _103
REMARK   45  A    between atoms: _105  and  _107
REMARK   46  A    between atoms: _107  and  _108
REMARK   47  A    between atoms: _107  and  _110
REMARK   48  A    between atoms: _110  and  _111
REMARK   49  A    between atoms: _114  and  _116
REMARK   50  A    between atoms: _116  and  _117
REMARK   51  A    between atoms: _120  and  _122
REMARK   52  A    between atoms: _122  and  _123
REMARK   53  A    between atoms: _122  and  _125
REMARK   54  A    between atoms: _125  and  _126
REMARK   55  A    between atoms: _126  and  _127
REMARK   56  A    between atoms: _129  and  _131
REMARK   57  A    between atoms: _131  and  _132
REMARK   58  A    between atoms: _131  and  _134
REMARK   59  A    between atoms: _134  and  _135
REMARK   60  A    between atoms: _135  and  _136
REMARK   61  A    between atoms: _136  and  _137
REMARK   62  A    between atoms: _147  and  _148
REMARK   63  A    between atoms: _153  and  _155
REMARK   64  A    between atoms: _155  and  _156
REMARK   65  A    between atoms: _155  and  _158
REMARK   66  A    between atoms: _158  and  _159
REMARK   67  A    between atoms: _159  and  _160
REMARK   68  A    between atoms: _162  and  _164
REMARK   69  A    between atoms: _164  and  _165
REMARK   70  A    between atoms: _164  and  _167
REMARK   71  A    between atoms: _167  and  _168
REMARK   72  A    between atoms: _168  and  _169
REMARK   73  A    between atoms: _169  and  _170
REMARK   74  A    between atoms: _180  and  _181
REMARK   75  A    between atoms: _186  and  _188
REMARK   76  A    between atoms: _188  and  _189
REMARK   77  A    between atoms: _191  and  _193
REMARK   78  A    between atoms: _193  and  _194
REMARK   79  A    between atoms: _193  and  _196
REMARK   80  A    between atoms: _196  and  _197
REMARK   81  A    between atoms: _199  and  _201
REMARK   82  A    between atoms: _201  and  _202
REMARK   83  A    between atoms: _201  and  _204
REMARK   84  A    between atoms: _207  and  _209
REMARK   85  A    between atoms: _209  and  _210
REMARK   86  A    between atoms: _209  and  _212
REMARK   87  A    between atoms: _212  and  _213
REMARK   88  A    between atoms: _215  and  _217
REMARK   89  A    between atoms: _217  and  _218
REMARK   90  A    between atoms: _217  and  _220
REMARK   91  A    between atoms: _220  and  _221
REMARK   92  A    between atoms: _223  and  _225
REMARK   93  A    between atoms: _225  and  _226
REMARK   94  A    between atoms: _225  and  _228
REMARK   95  A    between atoms: _228  and  _229
REMARK   96  A    between atoms: _229  and  _230
REMARK   97  A    between atoms: _235  and  _237
REMARK   98  A    between atoms: _237  and  _238
REMARK   99  A    between atoms: _237  and  _240
REMARK  100  A    between atoms: _240  and  _241
REMARK  101  A    between atoms: _247  and  _249
REMARK  102  A    between atoms: _249  and  _250
REMARK  103  A    between atoms: _249  and  _252
REMARK  104  A    between atoms: _252  and  _253
REMARK  105  A    between atoms: _256  and  _258
REMARK  106  A    between atoms: _258  and  _259
REMARK  107  A    between atoms: _258  and  _261
REMARK  108  A    between atoms: _261  and  _262
REMARK  109  A    between atoms: _265  and  _267
REMARK  110  A    between atoms: _267  and  _268
REMARK  111  A    between atoms: _271  and  _273
REMARK  112  A    between atoms: _273  and  _274
REMARK  113  A    between atoms: _273  and  _276
REMARK  114  A    between atoms: _276  and  _277
REMARK  115  A    between atoms: _277  and  _278
REMARK  116  A    between atoms: _280  and  _282
REMARK  117  A    between atoms: _282  and  _283
REMARK  118  A    between atoms: _282  and  _285
REMARK  119  A    between atoms: _285  and  _286
REMARK  120  A    between atoms: _289  and  _291
REMARK  121  A    between atoms: _291  and  _292
REMARK  122  A    between atoms: _291  and  _294
REMARK  123  A    between atoms: _297  and  _299
REMARK  124  A    between atoms: _299  and  _300
REMARK  125  A    between atoms: _299  and  _302
REMARK  126  A    between atoms: _302  and  _303
REMARK  127  A    between atoms: _305  and  _307
REMARK  128  A    between atoms: _307  and  _308
REMARK  129  A    between atoms: _307  and  _310
REMARK  130  A    between atoms: _310  and  _311
REMARK  131  A    between atoms: _311  and  _312
REMARK  132  A    between atoms: _312  and  _313
REMARK  133  A    between atoms: _313  and  _314
REMARK  134  A    between atoms: _319  and  _320
REMARK  135  A    between atoms: _325  and  _327
REMARK  136  A    between atoms: _327  and  _328
REMARK  137  A    between atoms: _327  and  _330
REMARK  138  A    between atoms: _330  and  _331
REMARK  139  A    between atoms: _336  and  _337
REMARK  140  A    between atoms: _339  and  _341
REMARK  141  A    between atoms: _341  and  _342
REMARK  142  A    between atoms: _341  and  _344
REMARK  143  A    between atoms: _344  and  _345
REMARK  144  A    between atoms: _348  and  _350
REMARK  145  A    between atoms: _350  and  _351
REMARK  146  A    between atoms: _350  and  _353
REMARK  147  A    between atoms: _353  and  _354
REMARK  148  A    between atoms: _357  and  _359
REMARK  149  A    between atoms: _359  and  _360
REMARK  150  A    between atoms: _359  and  _362
REMARK  151  A    between atoms: _362  and  _363
REMARK  152  A    between atoms: _366  and  _368
REMARK  153  A    between atoms: _368  and  _369
REMARK  154  A    between atoms: _368  and  _371
REMARK  155  A    between atoms: _371  and  _372
REMARK  156  A    between atoms: _375  and  _377
REMARK  157  A    between atoms: _377  and  _378
REMARK  158  A    between atoms: _377  and  _380
REMARK  159  A    between atoms: _380  and  _381
REMARK  160  A    between atoms: _383  and  _385
REMARK  161  A    between atoms: _385  and  _386
REMARK  162  A    between atoms: _385  and  _388
REMARK  163  A    between atoms: _388  and  _389
REMARK  164  A    between atoms: _394  and  _395
REMARK  165  A    between atoms: _397  and  _399
REMARK  166  A    between atoms: _399  and  _400
REMARK  167  A    between atoms: _399  and  _402
REMARK  168  A    between atoms: _402  and  _403
REMARK  169  A    between atoms: _406  and  _408
REMARK  170  A    between atoms: _408  and  _409
REMARK  171  A    between atoms: _408  and  _411
REMARK  172  A    between atoms: _411  and  _412
REMARK  173  A    between atoms: _417  and  _419
REMARK  174  A    between atoms: _419  and  _420
REMARK  175  A    between atoms: _419  and  _422
REMARK  176  A    between atoms: _422  and  _423
REMARK  177  A    between atoms: _427  and  _428
REMARK  178  A    between atoms: _433  and  _435
REMARK  179  A    between atoms: _435  and  _436
REMARK  180  A    between atoms: _435  and  _438
REMARK  181  A    between atoms: _438  and  _439
REMARK  182  A    between atoms: _442  and  _444
REMARK  183  A    between atoms: _444  and  _445
REMARK  184  A    between atoms: _448  and  _450
REMARK  185  A    between atoms: _450  and  _451
REMARK  186  A    between atoms: _450  and  _453
REMARK  187  A    between atoms: _453  and  _454
REMARK  188  A    between atoms: _454  and  _455
REMARK  189  A    between atoms: _457  and  _459
REMARK  190  A    between atoms: _459  and  _460
REMARK  191  A    between atoms: _459  and  _462
REMARK  192  A    between atoms: _462  and  _463
REMARK  193  A    between atoms: _468  and  _470
REMARK  194  A    between atoms: _470  and  _471
REMARK  195  A    between atoms: _470  and  _473
REMARK  196  A    between atoms: _473  and  _474
REMARK  197  A    between atoms: _484  and  _486
REMARK  198  A    between atoms: _486  and  _487
REMARK  199  A    between atoms: _486  and  _489
REMARK  200  A    between atoms: _492  and  _494
REMARK  201  A    between atoms: _494  and  _495
REMARK  202  A    between atoms: _494  and  _497
REMARK  203  A    between atoms: _497  and  _498
REMARK  204  A    between atoms: _498  and  _499
REMARK  205  A    between atoms: _499  and  _500
REMARK  206  A    between atoms: _500  and  _501
REMARK  207  A    between atoms: _505  and  _507
REMARK  208  A    between atoms: _507  and  _508
REMARK  209  A    between atoms: _507  and  _510
REMARK  210  A    between atoms: _510  and  _511
REMARK  211  A    between atoms: _511  and  _512
REMARK  212  A    between atoms: _515  and  _517
REMARK  213  A    between atoms: _517  and  _518
REMARK  214  A    between atoms: _517  and  _520
REMARK  215  A    between atoms: _520  and  _521
REMARK  216  A    between atoms: _524  and  _526
REMARK  217  A    between atoms: _526  and  _527
REMARK  218  A    between atoms: _526  and  _529
REMARK  219  A    between atoms: _529  and  _530
REMARK  220  A    between atoms: _530  and  _531
REMARK  221  A    between atoms: _531  and  _532
REMARK  222  A    between atoms: _541  and  _543
REMARK  223  A    between atoms: _543  and  _544
REMARK  224  A    between atoms: _543  and  _546
REMARK  225  A    between atoms: _546  and  _547
REMARK  226  A    between atoms: _550  and  _552
REMARK  227  A    between atoms: _552  and  _553
REMARK  228  A    between atoms: _552  and  _555
REMARK  229  A    between atoms: _555  and  _556
REMARK  230  A    between atoms: _561  and  _563
REMARK  231  A    between atoms: _563  and  _564
REMARK  232  A    between atoms: _563  and  _566
REMARK  233  A    between atoms: _566  and  _567
REMARK  234  A    between atoms: _567  and  _568
REMARK  235  A    between atoms: _568  and  _569
REMARK  236  A    between atoms: _578  and  _580
REMARK  237  A    between atoms: _580  and  _581
REMARK  238  A    between atoms: _580  and  _583
REMARK  239  A    between atoms: _583  and  _584
REMARK  240  A    between atoms: _584  and  _585
REMARK  241  A    between atoms: _587  and  _589
REMARK  242  A    between atoms: _589  and  _590
REMARK  243  A    between atoms: _589  and  _592
REMARK  244  A    between atoms: _592  and  _593
REMARK  245  A    between atoms: _593  and  _594
REMARK  246  A    between atoms: _596  and  _598
REMARK  247  A    between atoms: _598  and  _599
REMARK  248  A    between atoms: _598  and  _601
REMARK  249  A    between atoms: _601  and  _602
REMARK  250  A    between atoms: _602  and  _603
REMARK  251  A    between atoms: _603  and  _604
REMARK  252  A    between atoms: _604  and  _605
REMARK  253  A    between atoms: _609  and  _611
REMARK  254  A    between atoms: _611  and  _612
REMARK  255  A    between atoms: _611  and  _614
REMARK  256  A    between atoms: _614  and  _615
REMARK                            x       y       z     vdW  Elec       q    Type
REMARK                         _______ _______ _______ _____ _____    ______ ____
ROOT
ATOM      1  O   HOH     1      62.490  11.991  25.628  0.00  0.00    +0.000 OA
ENDROOT
TORSDOF 0
REMARK  Name = ../refined-set-2016/1x8r/1x8r_pocket.pdb
REMARK  256 active torsions:
REMARK  status: ('A' for Active; 'I' for Inactive)
REMARK    1  A    between atoms: _1  and  _3
REMARK    2  A    between atoms: _3  and  _4
REMARK    3  A    between atoms: _3  and  _6
REMARK    4  A    between atoms: _6  and  _7
REMARK    5  A    between atoms: _9  and  _11
REMARK    6  A    between atoms: _11  and  _12
REMARK    7  A    between atoms: _11  and  _14
REMARK    8  A    between atoms: _14  and  _15
REMARK    9  A    between atoms: _15  and  _16
REMARK   10  A    between atoms: _16  and  _17
REMARK   11  A    between atoms: _17  and  _18
REMARK   12  A    between atoms: _22  and  _24
REMARK   13  A    between atoms: _24  and  _25
REMARK   14  A    between atoms: _24  and  _27
REMARK   15  A    between atoms: _27  and  _28
REMARK   16  A    between atoms: _30  and  _32
REMARK   17  A    between atoms: _32  and  _33
REMARK   18  A    between atoms: _32  and  _35
REMARK   19  A    between atoms: _38  and  _40
REMARK   20  A    between atoms: _40  and  _41
REMARK   21  A    between atoms: _40  and  _43
REMARK   22  A    between atoms: _43  and  _44
REMARK   23  A    between atoms: _46  and  _48
REMARK   24  A    between atoms: _48  and  _49
REMARK   25  A    between atoms: _48  and  _51
REMARK   26  A    between atoms: _51  and  _52
REMARK   27  A    between atoms: _57  and  _59
REMARK   28  A    between atoms: _59  and  _60
REMARK   29  A    between atoms: _59  and  _62
REMARK   30  A    between atoms: _62  and  _63
REMARK   31  A    between atoms: _63  and  _64
REMARK   32  A    between atoms: _64  and  _65
REMARK   33  A    between atoms: _74  and  _76
REMARK   34  A    between atoms: _76  and  _77
REMARK   35  A    between atoms: _76  and  _79
REMARK   36  A    between atoms: _79  and  _80
REMARK   37  A    between atoms: _83  and  _85
REMARK   38  A    between atoms: _85  and  _86
REMARK   39  A    between atoms: _85  and  _88
REMARK   40  A    between atoms: _88  and  _89
REMARK   41  A    between atoms: _94  and  _96
REMARK   42  A    between atoms: _96  and  _97
REMARK   43  A    between atoms: _100  and  _102
REMARK   44  A    between atoms: _102  and  _103
REMARK   45  A    between atoms: _105  and  _107
REMARK   46  A    between atoms: _107  and  _108
REMARK   47  A    between atoms: _107  and  _110
REMARK   48  A    between atoms: _110  and  _111
REMARK   49  A    between atoms: _114  and  _116
REMARK   50  A    between atoms: _116  and  _117
REMARK   51  A    between atoms: _120  and  _122
REMARK   52  A    between atoms: _122  and  _123
REMARK   53  A    between atoms: _122  and  _125
REMARK   54  A    between atoms: _125  and  _126
REMARK   55  A    between atoms: _126  and  _127
REMARK   56  A    between atoms: _129  and  _131
REMARK   57  A    between atoms: _131  and  _132
REMARK   58  A    between atoms: _131  and  _134
REMARK   59  A    between atoms: _134  and  _135
REMARK   60  A    between atoms: _135  and  _136
REMARK   61  A    between atoms: _136  and  _137
REMARK   62  A    between atoms: _147  and  _148
REMARK   63  A    between atoms: _153  and  _155
REMARK   64  A    between atoms: _155  and  _156
REMARK   65  A    between atoms: _155  and  _158
REMARK   66  A    between atoms: _158  and  _159
REMARK   67  A    between atoms: _159  and  _160
REMARK   68  A    between atoms: _162  and  _164
REMARK   69  A    between atoms: _164  and  _165
REMARK   70  A    between atoms: _164  and  _167
REMARK   71  A    between atoms: _167  and  _168
REMARK   72  A    between atoms: _168  and  _169
REMARK   73  A    between atoms: _169  and  _170
REMARK   74  A    between atoms: _180  and  _181
REMARK   75  A    between atoms: _186  and  _188
REMARK   76  A    between atoms: _188  and  _189
REMARK   77  A    between atoms: _191  and  _193
REMARK   78  A    between atoms: _193  and  _194
REMARK   79  A    between atoms: _193  and  _196
REMARK   80  A    between atoms: _196  and  _197
REMARK   81  A    between atoms: _199  and  _201
REMARK   82  A    between atoms: _201  and  _202
REMARK   83  A    between atoms: _201  and  _204
REMARK   84  A    between atoms: _207  and  _209
REMARK   85  A    between atoms: _209  and  _210
REMARK   86  A    between atoms: _209  and  _212
REMARK   87  A    between atoms: _212  and  _213
REMARK   88  A    between atoms: _215  and  _217
REMARK   89  A    between atoms: _217  and  _218
REMARK   90  A    between atoms: _217  and  _220
REMARK   91  A    between atoms: _220  and  _221
REMARK   92  A    between atoms: _223  and  _225
REMARK   93  A    between atoms: _225  and  _226
REMARK   94  A    between atoms: _225  and  _228
REMARK   95  A    between atoms: _228  and  _229
REMARK   96  A    between atoms: _229  and  _230
REMARK   97  A    between atoms: _235  and  _237
REMARK   98  A    between atoms: _237  and  _238
REMARK   99  A    between atoms: _237  and  _240
REMARK  100  A    between atoms: _240  and  _241
REMARK  101  A    between atoms: _247  and  _249
REMARK  102  A    between atoms: _249  and  _250
REMARK  103  A    between atoms: _249  and  _252
REMARK  104  A    between atoms: _252  and  _253
REMARK  105  A    between atoms: _256  and  _258
REMARK  106  A    between atoms: _258  and  _259
REMARK  107  A    between atoms: _258  and  _261
REMARK  108  A    between atoms: _261  and  _262
REMARK  109  A    between atoms: _265  and  _267
REMARK  110  A    between atoms: _267  and  _268
REMARK  111  A    between atoms: _271  and  _273
REMARK  112  A    between atoms: _273  and  _274
REMARK  113  A    between atoms: _273  and  _276
REMARK  114  A    between atoms: _276  and  _277
REMARK  115  A    between atoms: _277  and  _278
REMARK  116  A    between atoms: _280  and  _282
REMARK  117  A    between atoms: _282  and  _283
REMARK  118  A    between atoms: _282  and  _285
REMARK  119  A    between atoms: _285  and  _286
REMARK  120  A    between atoms: _289  and  _291
REMARK  121  A    between atoms: _291  and  _292
REMARK  122  A    between atoms: _291  and  _294
REMARK  123  A    between atoms: _297  and  _299
REMARK  124  A    between atoms: _299  and  _300
REMARK  125  A    between atoms: _299  and  _302
REMARK  126  A    between atoms: _302  and  _303
REMARK  127  A    between atoms: _305  and  _307
REMARK  128  A    between atoms: _307  and  _308
REMARK  129  A    between atoms: _307  and  _310
REMARK  130  A    between atoms: _310  and  _311
REMARK  131  A    between atoms: _311  and  _312
REMARK  132  A    between atoms: _312  and  _313
REMARK  133  A    between atoms: _313  and  _314
REMARK  134  A    between atoms: _319  and  _320
REMARK  135  A    between atoms: _325  and  _327
REMARK  136  A    between atoms: _327  and  _328
REMARK  137  A    between atoms: _327  and  _330
REMARK  138  A    between atoms: _330  and  _331
REMARK  139  A    between atoms: _336  and  _337
REMARK  140  A    between atoms: _339  and  _341
REMARK  141  A    between atoms: _341  and  _342
REMARK  142  A    between atoms: _341  and  _344
REMARK  143  A    between atoms: _344  and  _345
REMARK  144  A    between atoms: _348  and  _350
REMARK  145  A    between atoms: _350  and  _351
REMARK  146  A    between atoms: _350  and  _353
REMARK  147  A    between atoms: _353  and  _354
REMARK  148  A    between atoms: _357  and  _359
REMARK  149  A    between atoms: _359  and  _360
REMARK  150  A    between atoms: _359  and  _362
REMARK  151  A    between atoms: _362  and  _363
REMARK  152  A    between atoms: _366  and  _368
REMARK  153  A    between atoms: _368  and  _369
REMARK  154  A    between atoms: _368  and  _371
REMARK  155  A    between atoms: _371  and  _372
REMARK  156  A    between atoms: _375  and  _377
REMARK  157  A    between atoms: _377  and  _378
REMARK  158  A    between atoms: _377  and  _380
REMARK  159  A    between atoms: _380  and  _381
REMARK  160  A    between atoms: _383  and  _385
REMARK  161  A    between atoms: _385  and  _386
REMARK  162  A    between atoms: _385  and  _388
REMARK  163  A    between atoms: _388  and  _389
REMARK  164  A    between atoms: _394  and  _395
REMARK  165  A    between atoms: _397  and  _399
REMARK  166  A    between atoms: _399  and  _400
REMARK  167  A    between atoms: _399  and  _402
REMARK  168  A    between atoms: _402  and  _403
REMARK  169  A    between atoms: _406  and  _408
REMARK  170  A    between atoms: _408  and  _409
REMARK  171  A    between atoms: _408  and  _411
REMARK  172  A    between atoms: _411  and  _412
REMARK  173  A    between atoms: _417  and  _419
REMARK  174  A    between atoms: _419  and  _420
REMARK  175  A    between atoms: _419  and  _422
REMARK  176  A    between atoms: _422  and  _423
REMARK  177  A    between atoms: _427  and  _428
REMARK  178  A    between atoms: _433  and  _435
REMARK  179  A    between atoms: _435  and  _436
REMARK  180  A    between atoms: _435  and  _438
REMARK  181  A    between atoms: _438  and  _439
REMARK  182  A    between atoms: _442  and  _444
REMARK  183  A    between atoms: _444  and  _445
REMARK  184  A    between atoms: _448  and  _450
REMARK  185  A    between atoms: _450  and  _451
REMARK  186  A    between atoms: _450  and  _453
REMARK  187  A    between atoms: _453  and  _454
REMARK  188  A    between atoms: _454  and  _455
REMARK  189  A    between atoms: _457  and  _459
REMARK  190  A    between atoms: _459  and  _460
REMARK  191  A    between atoms: _459  and  _462
REMARK  192  A    between atoms: _462  and  _463
REMARK  193  A    between atoms: _468  and  _470
REMARK  194  A    between atoms: _470  and  _471
REMARK  195  A    between atoms: _470  and  _473
REMARK  196  A    between atoms: _473  and  _474
REMARK  197  A    between atoms: _484  and  _486
REMARK  198  A    between atoms: _486  and  _487
REMARK  199  A    between atoms: _486  and  _489
REMARK  200  A    between atoms: _492  and  _494
REMARK  201  A    between atoms: _494  and  _495
REMARK  202  A    between atoms: _494  and  _497
REMARK  203  A    between atoms: _497  and  _498
REMARK  204  A    between atoms: _498  and  _499
REMARK  205  A    between atoms: _499  and  _500
REMARK  206  A    between atoms: _500  and  _501
REMARK  207  A    between atoms: _505  and  _507
REMARK  208  A    between atoms: _507  and  _508
REMARK  209  A    between atoms: _507  and  _510
REMARK  210  A    between atoms: _510  and  _511
REMARK  211  A    between atoms: _511  and  _512
REMARK  212  A    between atoms: _515  and  _517
REMARK  213  A    between atoms: _517  and  _518
REMARK  214  A    between atoms: _517  and  _520
REMARK  215  A    between atoms: _520  and  _521
REMARK  216  A    between atoms: _524  and  _526
REMARK  217  A    between atoms: _526  and  _527
REMARK  218  A    between atoms: _526  and  _529
REMARK  219  A    between atoms: _529  and  _530
REMARK  220  A    between atoms: _530  and  _531
REMARK  221  A    between atoms: _531  and  _532
REMARK  222  A    between atoms: _541  and  _543
REMARK  223  A    between atoms: _543  and  _544
REMARK  224  A    between atoms: _543  and  _546
REMARK  225  A    between atoms: _546  and  _547
REMARK  226  A    between atoms: _550  and  _552
REMARK  227  A    between atoms: _552  and  _553
REMARK  228  A    between atoms: _552  and  _555
REMARK  229  A    between atoms: _555  and  _556
REMARK  230  A    between atoms: _561  and  _563
REMARK  231  A    between atoms: _563  and  _564
REMARK  232  A    between atoms: _563  and  _566
REMARK  233  A    between atoms: _566  and  _567
REMARK  234  A    between atoms: _567  and  _568
REMARK  235  A    between atoms: _568  and  _569
REMARK  236  A    between atoms: _578  and  _580
REMARK  237  A    between atoms: _580  and  _581
REMARK  238  A    between atoms: _580  and  _583
REMARK  239  A    between atoms: _583  and  _584
REMARK  240  A    between atoms: _584  and  _585
REMARK  241  A    between atoms: _587  and  _589
REMARK  242  A    between atoms: _589  and  _590
REMARK  243  A    between atoms: _589  and  _592
REMARK  244  A    between atoms: _592  and  _593
REMARK  245  A    between atoms: _593  and  _594
REMARK  246  A    between atoms: _596  and  _598
REMARK  247  A    between atoms: _598  and  _599
REMARK  248  A    between atoms: _598  and  _601
REMARK  249  A    between atoms: _601  and  _602
REMARK  250  A    between atoms: _602  and  _603
REMARK  251  A    between atoms: _603  and  _604
REMARK  252  A    between atoms: _604  and  _605
REMARK  253  A    between atoms: _609  and  _611
REMARK  254  A    between atoms: _611  and  _612
REMARK  255  A    between atoms: _611  and  _614
REMARK  256  A    between atoms: _614  and  _615
REMARK                            x       y       z     vdW  Elec       q    Type
REMARK                         _______ _______ _______ _____ _____    ______ ____
ROOT
ATOM      1  O   HOH     1      57.935  12.644  32.819  0.00  0.00    +0.000 OA
ENDROOT
TORSDOF 0
REMARK  Name = ../refined-set-2016/1x8r/1x8r_pocket.pdb
REMARK  256 active torsions:
REMARK  status: ('A' for Active; 'I' for Inactive)
REMARK    1  A    between atoms: _1  and  _3
REMARK    2  A    between atoms: _3  and  _4
REMARK    3  A    between atoms: _3  and  _6
REMARK    4  A    between atoms: _6  and  _7
REMARK    5  A    between atoms: _9  and  _11
REMARK    6  A    between atoms: _11  and  _12
REMARK    7  A    between atoms: _11  and  _14
REMARK    8  A    between atoms: _14  and  _15
REMARK    9  A    between atoms: _15  and  _16
REMARK   10  A    between atoms: _16  and  _17
REMARK   11  A    between atoms: _17  and  _18
REMARK   12  A    between atoms: _22  and  _24
REMARK   13  A    between atoms: _24  and  _25
REMARK   14  A    between atoms: _24  and  _27
REMARK   15  A    between atoms: _27  and  _28
REMARK   16  A    between atoms: _30  and  _32
REMARK   17  A    between atoms: _32  and  _33
REMARK   18  A    between atoms: _32  and  _35
REMARK   19  A    between atoms: _38  and  _40
REMARK   20  A    between atoms: _40  and  _41
REMARK   21  A    between atoms: _40  and  _43
REMARK   22  A    between atoms: _43  and  _44
REMARK   23  A    between atoms: _46  and  _48
REMARK   24  A    between atoms: _48  and  _49
REMARK   25  A    between atoms: _48  and  _51
REMARK   26  A    between atoms: _51  and  _52
REMARK   27  A    between atoms: _57  and  _59
REMARK   28  A    between atoms: _59  and  _60
REMARK   29  A    between atoms: _59  and  _62
REMARK   30  A    between atoms: _62  and  _63
REMARK   31  A    between atoms: _63  and  _64
REMARK   32  A    between atoms: _64  and  _65
REMARK   33  A    between atoms: _74  and  _76
REMARK   34  A    between atoms: _76  and  _77
REMARK   35  A    between atoms: _76  and  _79
REMARK   36  A    between atoms: _79  and  _80
REMARK   37  A    between atoms: _83  and  _85
REMARK   38  A    between atoms: _85  and  _86
REMARK   39  A    between atoms: _85  and  _88
REMARK   40  A    between atoms: _88  and  _89
REMARK   41  A    between atoms: _94  and  _96
REMARK   42  A    between atoms: _96  and  _97
REMARK   43  A    between atoms: _100  and  _102
REMARK   44  A    between atoms: _102  and  _103
REMARK   45  A    between atoms: _105  and  _107
REMARK   46  A    between atoms: _107  and  _108
REMARK   47  A    between atoms: _107  and  _110
REMARK   48  A    between atoms: _110  and  _111
REMARK   49  A    between atoms: _114  and  _116
REMARK   50  A    between atoms: _116  and  _117
REMARK   51  A    between atoms: _120  and  _122
REMARK   52  A    between atoms: _122  and  _123
REMARK   53  A    between atoms: _122  and  _125
REMARK   54  A    between atoms: _125  and  _126
REMARK   55  A    between atoms: _126  and  _127
REMARK   56  A    between atoms: _129  and  _131
REMARK   57  A    between atoms: _131  and  _132
REMARK   58  A    between atoms: _131  and  _134
REMARK   59  A    between atoms: _134  and  _135
REMARK   60  A    between atoms: _135  and  _136
REMARK   61  A    between atoms: _136  and  _137
REMARK   62  A    between atoms: _147  and  _148
REMARK   63  A    between atoms: _153  and  _155
REMARK   64  A    between atoms: _155  and  _156
REMARK   65  A    between atoms: _155  and  _158
REMARK   66  A    between atoms: _158  and  _159
REMARK   67  A    between atoms: _159  and  _160
REMARK   68  A    between atoms: _162  and  _164
REMARK   69  A    between atoms: _164  and  _165
REMARK   70  A    between atoms: _164  and  _167
REMARK   71  A    between atoms: _167  and  _168
REMARK   72  A    between atoms: _168  and  _169
REMARK   73  A    between atoms: _169  and  _170
REMARK   74  A    between atoms: _180  and  _181
REMARK   75  A    between atoms: _186  and  _188
REMARK   76  A    between atoms: _188  and  _189
REMARK   77  A    between atoms: _191  and  _193
REMARK   78  A    between atoms: _193  and  _194
REMARK   79  A    between atoms: _193  and  _196
REMARK   80  A    between atoms: _196  and  _197
REMARK   81  A    between atoms: _199  and  _201
REMARK   82  A    between atoms: _201  and  _202
REMARK   83  A    between atoms: _201  and  _204
REMARK   84  A    between atoms: _207  and  _209
REMARK   85  A    between atoms: _209  and  _210
REMARK   86  A    between atoms: _209  and  _212
REMARK   87  A    between atoms: _212  and  _213
REMARK   88  A    between atoms: _215  and  _217
REMARK   89  A    between atoms: _217  and  _218
REMARK   90  A    between atoms: _217  and  _220
REMARK   91  A    between atoms: _220  and  _221
REMARK   92  A    between atoms: _223  and  _225
REMARK   93  A    between atoms: _225  and  _226
REMARK   94  A    between atoms: _225  and  _228
REMARK   95  A    between atoms: _228  and  _229
REMARK   96  A    between atoms: _229  and  _230
REMARK   97  A    between atoms: _235  and  _237
REMARK   98  A    between atoms: _237  and  _238
REMARK   99  A    between atoms: _237  and  _240
REMARK  100  A    between atoms: _240  and  _241
REMARK  101  A    between atoms: _247  and  _249
REMARK  102  A    between atoms: _249  and  _250
REMARK  103  A    between atoms: _249  and  _252
REMARK  104  A    between atoms: _252  and  _253
REMARK  105  A    between atoms: _256  and  _258
REMARK  106  A    between atoms: _258  and  _259
REMARK  107  A    between atoms: _258  and  _261
REMARK  108  A    between atoms: _261  and  _262
REMARK  109  A    between atoms: _265  and  _267
REMARK  110  A    between atoms: _267  and  _268
REMARK  111  A    between atoms: _271  and  _273
REMARK  112  A    between atoms: _273  and  _274
REMARK  113  A    between atoms: _273  and  _276
REMARK  114  A    between atoms: _276  and  _277
REMARK  115  A    between atoms: _277  and  _278
REMARK  116  A    between atoms: _280  and  _282
REMARK  117  A    between atoms: _282  and  _283
REMARK  118  A    between atoms: _282  and  _285
REMARK  119  A    between atoms: _285  and  _286
REMARK  120  A    between atoms: _289  and  _291
REMARK  121  A    between atoms: _291  and  _292
REMARK  122  A    between atoms: _291  and  _294
REMARK  123  A    between atoms: _297  and  _299
REMARK  124  A    between atoms: _299  and  _300
REMARK  125  A    between atoms: _299  and  _302
REMARK  126  A    between atoms: _302  and  _303
REMARK  127  A    between atoms: _305  and  _307
REMARK  128  A    between atoms: _307  and  _308
REMARK  129  A    between atoms: _307  and  _310
REMARK  130  A    between atoms: _310  and  _311
REMARK  131  A    between atoms: _311  and  _312
REMARK  132  A    between atoms: _312  and  _313
REMARK  133  A    between atoms: _313  and  _314
REMARK  134  A    between atoms: _319  and  _320
REMARK  135  A    between atoms: _325  and  _327
REMARK  136  A    between atoms: _327  and  _328
REMARK  137  A    between atoms: _327  and  _330
REMARK  138  A    between atoms: _330  and  _331
REMARK  139  A    between atoms: _336  and  _337
REMARK  140  A    between atoms: _339  and  _341
REMARK  141  A    between atoms: _341  and  _342
REMARK  142  A    between atoms: _341  and  _344
REMARK  143  A    between atoms: _344  and  _345
REMARK  144  A    between atoms: _348  and  _350
REMARK  145  A    between atoms: _350  and  _351
REMARK  146  A    between atoms: _350  and  _353
REMARK  147  A    between atoms: _353  and  _354
REMARK  148  A    between atoms: _357  and  _359
REMARK  149  A    between atoms: _359  and  _360
REMARK  150  A    between atoms: _359  and  _362
REMARK  151  A    between atoms: _362  and  _363
REMARK  152  A    between atoms: _366  and  _368
REMARK  153  A    between atoms: _368  and  _369
REMARK  154  A    between atoms: _368  and  _371
REMARK  155  A    between atoms: _371  and  _372
REMARK  156  A    between atoms: _375  and  _377
REMARK  157  A    between atoms: _377  and  _378
REMARK  158  A    between atoms: _377  and  _380
REMARK  159  A    between atoms: _380  and  _381
REMARK  160  A    between atoms: _383  and  _385
REMARK  161  A    between atoms: _385  and  _386
REMARK  162  A    between atoms: _385  and  _388
REMARK  163  A    between atoms: _388  and  _389
REMARK  164  A    between atoms: _394  and  _395
REMARK  165  A    between atoms: _397  and  _399
REMARK  166  A    between atoms: _399  and  _400
REMARK  167  A    between atoms: _399  and  _402
REMARK  168  A    between atoms: _402  and  _403
REMARK  169  A    between atoms: _406  and  _408
REMARK  170  A    between atoms: _408  and  _409
REMARK  171  A    between atoms: _408  and  _411
REMARK  172  A    between atoms: _411  and  _412
REMARK  173  A    between atoms: _417  and  _419
REMARK  174  A    between atoms: _419  and  _420
REMARK  175  A    between atoms: _419  and  _422
REMARK  176  A    between atoms: _422  and  _423
REMARK  177  A    between atoms: _427  and  _428
REMARK  178  A    between atoms: _433  and  _435
REMARK  179  A    between atoms: _435  and  _436
REMARK  180  A    between atoms: _435  and  _438
REMARK  181  A    between atoms: _438  and  _439
REMARK  182  A    between atoms: _442  and  _444
REMARK  183  A    between atoms: _444  and  _445
REMARK  184  A    between atoms: _448  and  _450
REMARK  185  A    between atoms: _450  and  _451
REMARK  186  A    between atoms: _450  and  _453
REMARK  187  A    between atoms: _453  and  _454
REMARK  188  A    between atoms: _454  and  _455
REMARK  189  A    between atoms: _457  and  _459
REMARK  190  A    between atoms: _459  and  _460
REMARK  191  A    between atoms: _459  and  _462
REMARK  192  A    between atoms: _462  and  _463
REMARK  193  A    between atoms: _468  and  _470
REMARK  194  A    between atoms: _470  and  _471
REMARK  195  A    between atoms: _470  and  _473
REMARK  196  A    between atoms: _473  and  _474
REMARK  197  A    between atoms: _484  and  _486
REMARK  198  A    between atoms: _486  and  _487
REMARK  199  A    between atoms: _486  and  _489
REMARK  200  A    between atoms: _492  and  _494
REMARK  201  A    between atoms: _494  and  _495
REMARK  202  A    between atoms: _494  and  _497
REMARK  203  A    between atoms: _497  and  _498
REMARK  204  A    between atoms: _498  and  _499
REMARK  205  A    between atoms: _499  and  _500
REMARK  206  A    between atoms: _500  and  _501
REMARK  207  A    between atoms: _505  and  _507
REMARK  208  A    between atoms: _507  and  _508
REMARK  209  A    between atoms: _507  and  _510
REMARK  210  A    between atoms: _510  and  _511
REMARK  211  A    between atoms: _511  and  _512
REMARK  212  A    between atoms: _515  and  _517
REMARK  213  A    between atoms: _517  and  _518
REMARK  214  A    between atoms: _517  and  _520
REMARK  215  A    between atoms: _520  and  _521
REMARK  216  A    between atoms: _524  and  _526
REMARK  217  A    between atoms: _526  and  _527
REMARK  218  A    between atoms: _526  and  _529
REMARK  219  A    between atoms: _529  and  _530
REMARK  220  A    between atoms: _530  and  _531
REMARK  221  A    between atoms: _531  and  _532
REMARK  222  A    between atoms: _541  and  _543
REMARK  223  A    between atoms: _543  and  _544
REMARK  224  A    between atoms: _543  and  _546
REMARK  225  A    between atoms: _546  and  _547
REMARK  226  A    between atoms: _550  and  _552
REMARK  227  A    between atoms: _552  and  _553
REMARK  228  A    between atoms: _552  and  _555
REMARK  229  A    between atoms: _555  and  _556
REMARK  230  A    between atoms: _561  and  _563
REMARK  231  A    between atoms: _563  and  _564
REMARK  232  A    between atoms: _563  and  _566
REMARK  233  A    between atoms: _566  and  _567
REMARK  234  A    between atoms: _567  and  _568
REMARK  235  A    between atoms: _568  and  _569
REMARK  236  A    between atoms: _578  and  _580
REMARK  237  A    between atoms: _580  and  _581
REMARK  238  A    between atoms: _580  and  _583
REMARK  239  A    between atoms: _583  and  _584
REMARK  240  A    between atoms: _584  and  _585
REMARK  241  A    between atoms: _587  and  _589
REMARK  242  A    between atoms: _589  and  _590
REMARK  243  A    between atoms: _589  and  _592
REMARK  244  A    between atoms: _592  and  _593
REMARK  245  A    between atoms: _593  and  _594
REMARK  246  A    between atoms: _596  and  _598
REMARK  247  A    between atoms: _598  and  _599
REMARK  248  A    between atoms: _598  and  _601
REMARK  249  A    between atoms: _601  and  _602
REMARK  250  A    between atoms: _602  and  _603
REMARK  251  A    between atoms: _603  and  _604
REMARK  252  A    between atoms: _604  and  _605
REMARK  253  A    between atoms: _609  and  _611
REMARK  254  A    between atoms: _611  and  _612
REMARK  255  A    between atoms: _611  and  _614
REMARK  256  A    between atoms: _614  and  _615
REMARK                            x       y       z     vdW  Elec       q    Type
REMARK                         _______ _______ _______ _____ _____    ______ ____
ROOT
ATOM      1  O   HOH     1      59.589  17.115  31.955  0.00  0.00    +0.000 OA
ENDROOT
TORSDOF 0
REMARK  Name = ../refined-set-2016/1x8r/1x8r_pocket.pdb
REMARK  256 active torsions:
REMARK  status: ('A' for Active; 'I' for Inactive)
REMARK    1  A    between atoms: _1  and  _3
REMARK    2  A    between atoms: _3  and  _4
REMARK    3  A    between atoms: _3  and  _6
REMARK    4  A    between atoms: _6  and  _7
REMARK    5  A    between atoms: _9  and  _11
REMARK    6  A    between atoms: _11  and  _12
REMARK    7  A    between atoms: _11  and  _14
REMARK    8  A    between atoms: _14  and  _15
REMARK    9  A    between atoms: _15  and  _16
REMARK   10  A    between atoms: _16  and  _17
REMARK   11  A    between atoms: _17  and  _18
REMARK   12  A    between atoms: _22  and  _24
REMARK   13  A    between atoms: _24  and  _25
REMARK   14  A    between atoms: _24  and  _27
REMARK   15  A    between atoms: _27  and  _28
REMARK   16  A    between atoms: _30  and  _32
REMARK   17  A    between atoms: _32  and  _33
REMARK   18  A    between atoms: _32  and  _35
REMARK   19  A    between atoms: _38  and  _40
REMARK   20  A    between atoms: _40  and  _41
REMARK   21  A    between atoms: _40  and  _43
REMARK   22  A    between atoms: _43  and  _44
REMARK   23  A    between atoms: _46  and  _48
REMARK   24  A    between atoms: _48  and  _49
REMARK   25  A    between atoms: _48  and  _51
REMARK   26  A    between atoms: _51  and  _52
REMARK   27  A    between atoms: _57  and  _59
REMARK   28  A    between atoms: _59  and  _60
REMARK   29  A    between atoms: _59  and  _62
REMARK   30  A    between atoms: _62  and  _63
REMARK   31  A    between atoms: _63  and  _64
REMARK   32  A    between atoms: _64  and  _65
REMARK   33  A    between atoms: _74  and  _76
REMARK   34  A    between atoms: _76  and  _77
REMARK   35  A    between atoms: _76  and  _79
REMARK   36  A    between atoms: _79  and  _80
REMARK   37  A    between atoms: _83  and  _85
REMARK   38  A    between atoms: _85  and  _86
REMARK   39  A    between atoms: _85  and  _88
REMARK   40  A    between atoms: _88  and  _89
REMARK   41  A    between atoms: _94  and  _96
REMARK   42  A    between atoms: _96  and  _97
REMARK   43  A    between atoms: _100  and  _102
REMARK   44  A    between atoms: _102  and  _103
REMARK   45  A    between atoms: _105  and  _107
REMARK   46  A    between atoms: _107  and  _108
REMARK   47  A    between atoms: _107  and  _110
REMARK   48  A    between atoms: _110  and  _111
REMARK   49  A    between atoms: _114  and  _116
REMARK   50  A    between atoms: _116  and  _117
REMARK   51  A    between atoms: _120  and  _122
REMARK   52  A    between atoms: _122  and  _123
REMARK   53  A    between atoms: _122  and  _125
REMARK   54  A    between atoms: _125  and  _126
REMARK   55  A    between atoms: _126  and  _127
REMARK   56  A    between atoms: _129  and  _131
REMARK   57  A    between atoms: _131  and  _132
REMARK   58  A    between atoms: _131  and  _134
REMARK   59  A    between atoms: _134  and  _135
REMARK   60  A    between atoms: _135  and  _136
REMARK   61  A    between atoms: _136  and  _137
REMARK   62  A    between atoms: _147  and  _148
REMARK   63  A    between atoms: _153  and  _155
REMARK   64  A    between atoms: _155  and  _156
REMARK   65  A    between atoms: _155  and  _158
REMARK   66  A    between atoms: _158  and  _159
REMARK   67  A    between atoms: _159  and  _160
REMARK   68  A    between atoms: _162  and  _164
REMARK   69  A    between atoms: _164  and  _165
REMARK   70  A    between atoms: _164  and  _167
REMARK   71  A    between atoms: _167  and  _168
REMARK   72  A    between atoms: _168  and  _169
REMARK   73  A    between atoms: _169  and  _170
REMARK   74  A    between atoms: _180  and  _181
REMARK   75  A    between atoms: _186  and  _188
REMARK   76  A    between atoms: _188  and  _189
REMARK   77  A    between atoms: _191  and  _193
REMARK   78  A    between atoms: _193  and  _194
REMARK   79  A    between atoms: _193  and  _196
REMARK   80  A    between atoms: _196  and  _197
REMARK   81  A    between atoms: _199  and  _201
REMARK   82  A    between atoms: _201  and  _202
REMARK   83  A    between atoms: _201  and  _204
REMARK   84  A    between atoms: _207  and  _209
REMARK   85  A    between atoms: _209  and  _210
REMARK   86  A    between atoms: _209  and  _212
REMARK   87  A    between atoms: _212  and  _213
REMARK   88  A    between atoms: _215  and  _217
REMARK   89  A    between atoms: _217  and  _218
REMARK   90  A    between atoms: _217  and  _220
REMARK   91  A    between atoms: _220  and  _221
REMARK   92  A    between atoms: _223  and  _225
REMARK   93  A    between atoms: _225  and  _226
REMARK   94  A    between atoms: _225  and  _228
REMARK   95  A    between atoms: _228  and  _229
REMARK   96  A    between atoms: _229  and  _230
REMARK   97  A    between atoms: _235  and  _237
REMARK   98  A    between atoms: _237  and  _238
REMARK   99  A    between atoms: _237  and  _240
REMARK  100  A    between atoms: _240  and  _241
REMARK  101  A    between atoms: _247  and  _249
REMARK  102  A    between atoms: _249  and  _250
REMARK  103  A    between atoms: _249  and  _252
REMARK  104  A    between atoms: _252  and  _253
REMARK  105  A    between atoms: _256  and  _258
REMARK  106  A    between atoms: _258  and  _259
REMARK  107  A    between atoms: _258  and  _261
REMARK  108  A    between atoms: _261  and  _262
REMARK  109  A    between atoms: _265  and  _267
REMARK  110  A    between atoms: _267  and  _268
REMARK  111  A    between atoms: _271  and  _273
REMARK  112  A    between atoms: _273  and  _274
REMARK  113  A    between atoms: _273  and  _276
REMARK  114  A    between atoms: _276  and  _277
REMARK  115  A    between atoms: _277  and  _278
REMARK  116  A    between atoms: _280  and  _282
REMARK  117  A    between atoms: _282  and  _283
REMARK  118  A    between atoms: _282  and  _285
REMARK  119  A    between atoms: _285  and  _286
REMARK  120  A    between atoms: _289  and  _291
REMARK  121  A    between atoms: _291  and  _292
REMARK  122  A    between atoms: _291  and  _294
REMARK  123  A    between atoms: _297  and  _299
REMARK  124  A    between atoms: _299  and  _300
REMARK  125  A    between atoms: _299  and  _302
REMARK  126  A    between atoms: _302  and  _303
REMARK  127  A    between atoms: _305  and  _307
REMARK  128  A    between atoms: _307  and  _308
REMARK  129  A    between atoms: _307  and  _310
REMARK  130  A    between atoms: _310  and  _311
REMARK  131  A    between atoms: _311  and  _312
REMARK  132  A    between atoms: _312  and  _313
REMARK  133  A    between atoms: _313  and  _314
REMARK  134  A    between atoms: _319  and  _320
REMARK  135  A    between atoms: _325  and  _327
REMARK  136  A    between atoms: _327  and  _328
REMARK  137  A    between atoms: _327  and  _330
REMARK  138  A    between atoms: _330  and  _331
REMARK  139  A    between atoms: _336  and  _337
REMARK  140  A    between atoms: _339  and  _341
REMARK  141  A    between atoms: _341  and  _342
REMARK  142  A    between atoms: _341  and  _344
REMARK  143  A    between atoms: _344  and  _345
REMARK  144  A    between atoms: _348  and  _350
REMARK  145  A    between atoms: _350  and  _351
REMARK  146  A    between atoms: _350  and  _353
REMARK  147  A    between atoms: _353  and  _354
REMARK  148  A    between atoms: _357  and  _359
REMARK  149  A    between atoms: _359  and  _360
REMARK  150  A    between atoms: _359  and  _362
REMARK  151  A    between atoms: _362  and  _363
REMARK  152  A    between atoms: _366  and  _368
REMARK  153  A    between atoms: _368  and  _369
REMARK  154  A    between atoms: _368  and  _371
REMARK  155  A    between atoms: _371  and  _372
REMARK  156  A    between atoms: _375  and  _377
REMARK  157  A    between atoms: _377  and  _378
REMARK  158  A    between atoms: _377  and  _380
REMARK  159  A    between atoms: _380  and  _381
REMARK  160  A    between atoms: _383  and  _385
REMARK  161  A    between atoms: _385  and  _386
REMARK  162  A    between atoms: _385  and  _388
REMARK  163  A    between atoms: _388  and  _389
REMARK  164  A    between atoms: _394  and  _395
REMARK  165  A    between atoms: _397  and  _399
REMARK  166  A    between atoms: _399  and  _400
REMARK  167  A    between atoms: _399  and  _402
REMARK  168  A    between atoms: _402  and  _403
REMARK  169  A    between atoms: _406  and  _408
REMARK  170  A    between atoms: _408  and  _409
REMARK  171  A    between atoms: _408  and  _411
REMARK  172  A    between atoms: _411  and  _412
REMARK  173  A    between atoms: _417  and  _419
REMARK  174  A    between atoms: _419  and  _420
REMARK  175  A    between atoms: _419  and  _422
REMARK  176  A    between atoms: _422  and  _423
REMARK  177  A    between atoms: _427  and  _428
REMARK  178  A    between atoms: _433  and  _435
REMARK  179  A    between atoms: _435  and  _436
REMARK  180  A    between atoms: _435  and  _438
REMARK  181  A    between atoms: _438  and  _439
REMARK  182  A    between atoms: _442  and  _444
REMARK  183  A    between atoms: _444  and  _445
REMARK  184  A    between atoms: _448  and  _450
REMARK  185  A    between atoms: _450  and  _451
REMARK  186  A    between atoms: _450  and  _453
REMARK  187  A    between atoms: _453  and  _454
REMARK  188  A    between atoms: _454  and  _455
REMARK  189  A    between atoms: _457  and  _459
REMARK  190  A    between atoms: _459  and  _460
REMARK  191  A    between atoms: _459  and  _462
REMARK  192  A    between atoms: _462  and  _463
REMARK  193  A    between atoms: _468  and  _470
REMARK  194  A    between atoms: _470  and  _471
REMARK  195  A    between atoms: _470  and  _473
REMARK  196  A    between atoms: _473  and  _474
REMARK  197  A    between atoms: _484  and  _486
REMARK  198  A    between atoms: _486  and  _487
REMARK  199  A    between atoms: _486  and  _489
REMARK  200  A    between atoms: _492  and  _494
REMARK  201  A    between atoms: _494  and  _495
REMARK  202  A    between atoms: _494  and  _497
REMARK  203  A    between atoms: _497  and  _498
REMARK  204  A    between atoms: _498  and  _499
REMARK  205  A    between atoms: _499  and  _500
REMARK  206  A    between atoms: _500  and  _501
REMARK  207  A    between atoms: _505  and  _507
REMARK  208  A    between atoms: _507  and  _508
REMARK  209  A    between atoms: _507  and  _510
REMARK  210  A    between atoms: _510  and  _511
REMARK  211  A    between atoms: _511  and  _512
REMARK  212  A    between atoms: _515  and  _517
REMARK  213  A    between atoms: _517  and  _518
REMARK  214  A    between atoms: _517  and  _520
REMARK  215  A    between atoms: _520  and  _521
REMARK  216  A    between atoms: _524  and  _526
REMARK  217  A    between atoms: _526  and  _527
REMARK  218  A    between atoms: _526  and  _529
REMARK  219  A    between atoms: _529  and  _530
REMARK  220  A    between atoms: _530  and  _531
REMARK  221  A    between atoms: _531  and  _532
REMARK  222  A    between atoms: _541  and  _543
REMARK  223  A    between atoms: _543  and  _544
REMARK  224  A    between atoms: _543  and  _546
REMARK  225  A    between atoms: _546  and  _547
REMARK  226  A    between atoms: _550  and  _552
REMARK  227  A    between atoms: _552  and  _553
REMARK  228  A    between atoms: _552  and  _555
REMARK  229  A    between atoms: _555  and  _556
REMARK  230  A    between atoms: _561  and  _563
REMARK  231  A    between atoms: _563  and  _564
REMARK  232  A    between atoms: _563  and  _566
REMARK  233  A    between atoms: _566  and  _567
REMARK  234  A    between atoms: _567  and  _568
REMARK  235  A    between atoms: _568  and  _569
REMARK  236  A    between atoms: _578  and  _580
REMARK  237  A    between atoms: _580  and  _581
REMARK  238  A    between atoms: _580  and  _583
REMARK  239  A    between atoms: _583  and  _584
REMARK  240  A    between atoms: _584  and  _585
REMARK  241  A    between atoms: _587  and  _589
REMARK  242  A    between atoms: _589  and  _590
REMARK  243  A    between atoms: _589  and  _592
REMARK  244  A    between atoms: _592  and  _593
REMARK  245  A    between atoms: _593  and  _594
REMARK  246  A    between atoms: _596  and  _598
REMARK  247  A    between atoms: _598  and  _599
REMARK  248  A    between atoms: _598  and  _601
REMARK  249  A    between atoms: _601  and  _602
REMARK  250  A    between atoms: _602  and  _603
REMARK  251  A    between atoms: _603  and  _604
REMARK  252  A    between atoms: _604  and  _605
REMARK  253  A    between atoms: _609  and  _611
REMARK  254  A    between atoms: _611  and  _612
REMARK  255  A    between atoms: _611  and  _614
REMARK  256  A    between atoms: _614  and  _615
REMARK                            x       y       z     vdW  Elec       q    Type
REMARK                         _______ _______ _______ _____ _____    ______ ____
ROOT
ATOM      1  O   HOH     1      51.067   4.153  32.767  0.00  0.00    +0.000 OA
ENDROOT
TORSDOF 0
REMARK  Name = ../refined-set-2016/1x8r/1x8r_pocket.pdb
REMARK  256 active torsions:
REMARK  status: ('A' for Active; 'I' for Inactive)
REMARK    1  A    between atoms: _1  and  _3
REMARK    2  A    between atoms: _3  and  _4
REMARK    3  A    between atoms: _3  and  _6
REMARK    4  A    between atoms: _6  and  _7
REMARK    5  A    between atoms: _9  and  _11
REMARK    6  A    between atoms: _11  and  _12
REMARK    7  A    between atoms: _11  and  _14
REMARK    8  A    between atoms: _14  and  _15
REMARK    9  A    between atoms: _15  and  _16
REMARK   10  A    between atoms: _16  and  _17
REMARK   11  A    between atoms: _17  and  _18
REMARK   12  A    between atoms: _22  and  _24
REMARK   13  A    between atoms: _24  and  _25
REMARK   14  A    between atoms: _24  and  _27
REMARK   15  A    between atoms: _27  and  _28
REMARK   16  A    between atoms: _30  and  _32
REMARK   17  A    between atoms: _32  and  _33
REMARK   18  A    between atoms: _32  and  _35
REMARK   19  A    between atoms: _38  and  _40
REMARK   20  A    between atoms: _40  and  _41
REMARK   21  A    between atoms: _40  and  _43
REMARK   22  A    between atoms: _43  and  _44
REMARK   23  A    between atoms: _46  and  _48
REMARK   24  A    between atoms: _48  and  _49
REMARK   25  A    between atoms: _48  and  _51
REMARK   26  A    between atoms: _51  and  _52
REMARK   27  A    between atoms: _57  and  _59
REMARK   28  A    between atoms: _59  and  _60
REMARK   29  A    between atoms: _59  and  _62
REMARK   30  A    between atoms: _62  and  _63
REMARK   31  A    between atoms: _63  and  _64
REMARK   32  A    between atoms: _64  and  _65
REMARK   33  A    between atoms: _74  and  _76
REMARK   34  A    between atoms: _76  and  _77
REMARK   35  A    between atoms: _76  and  _79
REMARK   36  A    between atoms: _79  and  _80
REMARK   37  A    between atoms: _83  and  _85
REMARK   38  A    between atoms: _85  and  _86
REMARK   39  A    between atoms: _85  and  _88
REMARK   40  A    between atoms: _88  and  _89
REMARK   41  A    between atoms: _94  and  _96
REMARK   42  A    between atoms: _96  and  _97
REMARK   43  A    between atoms: _100  and  _102
REMARK   44  A    between atoms: _102  and  _103
REMARK   45  A    between atoms: _105  and  _107
REMARK   46  A    between atoms: _107  and  _108
REMARK   47  A    between atoms: _107  and  _110
REMARK   48  A    between atoms: _110  and  _111
REMARK   49  A    between atoms: _114  and  _116
REMARK   50  A    between atoms: _116  and  _117
REMARK   51  A    between atoms: _120  and  _122
REMARK   52  A    between atoms: _122  and  _123
REMARK   53  A    between atoms: _122  and  _125
REMARK   54  A    between atoms: _125  and  _126
REMARK   55  A    between atoms: _126  and  _127
REMARK   56  A    between atoms: _129  and  _131
REMARK   57  A    between atoms: _131  and  _132
REMARK   58  A    between atoms: _131  and  _134
REMARK   59  A    between atoms: _134  and  _135
REMARK   60  A    between atoms: _135  and  _136
REMARK   61  A    between atoms: _136  and  _137
REMARK   62  A    between atoms: _147  and  _148
REMARK   63  A    between atoms: _153  and  _155
REMARK   64  A    between atoms: _155  and  _156
REMARK   65  A    between atoms: _155  and  _158
REMARK   66  A    between atoms: _158  and  _159
REMARK   67  A    between atoms: _159  and  _160
REMARK   68  A    between atoms: _162  and  _164
REMARK   69  A    between atoms: _164  and  _165
REMARK   70  A    between atoms: _164  and  _167
REMARK   71  A    between atoms: _167  and  _168
REMARK   72  A    between atoms: _168  and  _169
REMARK   73  A    between atoms: _169  and  _170
REMARK   74  A    between atoms: _180  and  _181
REMARK   75  A    between atoms: _186  and  _188
REMARK   76  A    between atoms: _188  and  _189
REMARK   77  A    between atoms: _191  and  _193
REMARK   78  A    between atoms: _193  and  _194
REMARK   79  A    between atoms: _193  and  _196
REMARK   80  A    between atoms: _196  and  _197
REMARK   81  A    between atoms: _199  and  _201
REMARK   82  A    between atoms: _201  and  _202
REMARK   83  A    between atoms: _201  and  _204
REMARK   84  A    between atoms: _207  and  _209
REMARK   85  A    between atoms: _209  and  _210
REMARK   86  A    between atoms: _209  and  _212
REMARK   87  A    between atoms: _212  and  _213
REMARK   88  A    between atoms: _215  and  _217
REMARK   89  A    between atoms: _217  and  _218
REMARK   90  A    between atoms: _217  and  _220
REMARK   91  A    between atoms: _220  and  _221
REMARK   92  A    between atoms: _223  and  _225
REMARK   93  A    between atoms: _225  and  _226
REMARK   94  A    between atoms: _225  and  _228
REMARK   95  A    between atoms: _228  and  _229
REMARK   96  A    between atoms: _229  and  _230
REMARK   97  A    between atoms: _235  and  _237
REMARK   98  A    between atoms: _237  and  _238
REMARK   99  A    between atoms: _237  and  _240
REMARK  100  A    between atoms: _240  and  _241
REMARK  101  A    between atoms: _247  and  _249
REMARK  102  A    between atoms: _249  and  _250
REMARK  103  A    between atoms: _249  and  _252
REMARK  104  A    between atoms: _252  and  _253
REMARK  105  A    between atoms: _256  and  _258
REMARK  106  A    between atoms: _258  and  _259
REMARK  107  A    between atoms: _258  and  _261
REMARK  108  A    between atoms: _261  and  _262
REMARK  109  A    between atoms: _265  and  _267
REMARK  110  A    between atoms: _267  and  _268
REMARK  111  A    between atoms: _271  and  _273
REMARK  112  A    between atoms: _273  and  _274
REMARK  113  A    between atoms: _273  and  _276
REMARK  114  A    between atoms: _276  and  _277
REMARK  115  A    between atoms: _277  and  _278
REMARK  116  A    between atoms: _280  and  _282
REMARK  117  A    between atoms: _282  and  _283
REMARK  118  A    between atoms: _282  and  _285
REMARK  119  A    between atoms: _285  and  _286
REMARK  120  A    between atoms: _289  and  _291
REMARK  121  A    between atoms: _291  and  _292
REMARK  122  A    between atoms: _291  and  _294
REMARK  123  A    between atoms: _297  and  _299
REMARK  124  A    between atoms: _299  and  _300
REMARK  125  A    between atoms: _299  and  _302
REMARK  126  A    between atoms: _302  and  _303
REMARK  127  A    between atoms: _305  and  _307
REMARK  128  A    between atoms: _307  and  _308
REMARK  129  A    between atoms: _307  and  _310
REMARK  130  A    between atoms: _310  and  _311
REMARK  131  A    between atoms: _311  and  _312
REMARK  132  A    between atoms: _312  and  _313
REMARK  133  A    between atoms: _313  and  _314
REMARK  134  A    between atoms: _319  and  _320
REMARK  135  A    between atoms: _325  and  _327
REMARK  136  A    between atoms: _327  and  _328
REMARK  137  A    between atoms: _327  and  _330
REMARK  138  A    between atoms: _330  and  _331
REMARK  139  A    between atoms: _336  and  _337
REMARK  140  A    between atoms: _339  and  _341
REMARK  141  A    between atoms: _341  and  _342
REMARK  142  A    between atoms: _341  and  _344
REMARK  143  A    between atoms: _344  and  _345
REMARK  144  A    between atoms: _348  and  _350
REMARK  145  A    between atoms: _350  and  _351
REMARK  146  A    between atoms: _350  and  _353
REMARK  147  A    between atoms: _353  and  _354
REMARK  148  A    between atoms: _357  and  _359
REMARK  149  A    between atoms: _359  and  _360
REMARK  150  A    between atoms: _359  and  _362
REMARK  151  A    between atoms: _362  and  _363
REMARK  152  A    between atoms: _366  and  _368
REMARK  153  A    between atoms: _368  and  _369
REMARK  154  A    between atoms: _368  and  _371
REMARK  155  A    between atoms: _371  and  _372
REMARK  156  A    between atoms: _375  and  _377
REMARK  157  A    between atoms: _377  and  _378
REMARK  158  A    between atoms: _377  and  _380
REMARK  159  A    between atoms: _380  and  _381
REMARK  160  A    between atoms: _383  and  _385
REMARK  161  A    between atoms: _385  and  _386
REMARK  162  A    between atoms: _385  and  _388
REMARK  163  A    between atoms: _388  and  _389
REMARK  164  A    between atoms: _394  and  _395
REMARK  165  A    between atoms: _397  and  _399
REMARK  166  A    between atoms: _399  and  _400
REMARK  167  A    between atoms: _399  and  _402
REMARK  168  A    between atoms: _402  and  _403
REMARK  169  A    between atoms: _406  and  _408
REMARK  170  A    between atoms: _408  and  _409
REMARK  171  A    between atoms: _408  and  _411
REMARK  172  A    between atoms: _411  and  _412
REMARK  173  A    between atoms: _417  and  _419
REMARK  174  A    between atoms: _419  and  _420
REMARK  175  A    between atoms: _419  and  _422
REMARK  176  A    between atoms: _422  and  _423
REMARK  177  A    between atoms: _427  and  _428
REMARK  178  A    between atoms: _433  and  _435
REMARK  179  A    between atoms: _435  and  _436
REMARK  180  A    between atoms: _435  and  _438
REMARK  181  A    between atoms: _438  and  _439
REMARK  182  A    between atoms: _442  and  _444
REMARK  183  A    between atoms: _444  and  _445
REMARK  184  A    between atoms: _448  and  _450
REMARK  185  A    between atoms: _450  and  _451
REMARK  186  A    between atoms: _450  and  _453
REMARK  187  A    between atoms: _453  and  _454
REMARK  188  A    between atoms: _454  and  _455
REMARK  189  A    between atoms: _457  and  _459
REMARK  190  A    between atoms: _459  and  _460
REMARK  191  A    between atoms: _459  and  _462
REMARK  192  A    between atoms: _462  and  _463
REMARK  193  A    between atoms: _468  and  _470
REMARK  194  A    between atoms: _470  and  _471
REMARK  195  A    between atoms: _470  and  _473
REMARK  196  A    between atoms: _473  and  _474
REMARK  197  A    between atoms: _484  and  _486
REMARK  198  A    between atoms: _486  and  _487
REMARK  199  A    between atoms: _486  and  _489
REMARK  200  A    between atoms: _492  and  _494
REMARK  201  A    between atoms: _494  and  _495
REMARK  202  A    between atoms: _494  and  _497
REMARK  203  A    between atoms: _497  and  _498
REMARK  204  A    between atoms: _498  and  _499
REMARK  205  A    between atoms: _499  and  _500
REMARK  206  A    between atoms: _500  and  _501
REMARK  207  A    between atoms: _505  and  _507
REMARK  208  A    between atoms: _507  and  _508
REMARK  209  A    between atoms: _507  and  _510
REMARK  210  A    between atoms: _510  and  _511
REMARK  211  A    between atoms: _511  and  _512
REMARK  212  A    between atoms: _515  and  _517
REMARK  213  A    between atoms: _517  and  _518
REMARK  214  A    between atoms: _517  and  _520
REMARK  215  A    between atoms: _520  and  _521
REMARK  216  A    between atoms: _524  and  _526
REMARK  217  A    between atoms: _526  and  _527
REMARK  218  A    between atoms: _526  and  _529
REMARK  219  A    between atoms: _529  and  _530
REMARK  220  A    between atoms: _530  and  _531
REMARK  221  A    between atoms: _531  and  _532
REMARK  222  A    between atoms: _541  and  _543
REMARK  223  A    between atoms: _543  and  _544
REMARK  224  A    between atoms: _543  and  _546
REMARK  225  A    between atoms: _546  and  _547
REMARK  226  A    between atoms: _550  and  _552
REMARK  227  A    between atoms: _552  and  _553
REMARK  228  A    between atoms: _552  and  _555
REMARK  229  A    between atoms: _555  and  _556
REMARK  230  A    between atoms: _561  and  _563
REMARK  231  A    between atoms: _563  and  _564
REMARK  232  A    between atoms: _563  and  _566
REMARK  233  A    between atoms: _566  and  _567
REMARK  234  A    between atoms: _567  and  _568
REMARK  235  A    between atoms: _568  and  _569
REMARK  236  A    between atoms: _578  and  _580
REMARK  237  A    between atoms: _580  and  _581
REMARK  238  A    between atoms: _580  and  _583
REMARK  239  A    between atoms: _583  and  _584
REMARK  240  A    between atoms: _584  and  _585
REMARK  241  A    between atoms: _587  and  _589
REMARK  242  A    between atoms: _589  and  _590
REMARK  243  A    between atoms: _589  and  _592
REMARK  244  A    between atoms: _592  and  _593
REMARK  245  A    between atoms: _593  and  _594
REMARK  246  A    between atoms: _596  and  _598
REMARK  247  A    between atoms: _598  and  _599
REMARK  248  A    between atoms: _598  and  _601
REMARK  249  A    between atoms: _601  and  _602
REMARK  250  A    between atoms: _602  and  _603
REMARK  251  A    between atoms: _603  and  _604
REMARK  252  A    between atoms: _604  and  _605
REMARK  253  A    between atoms: _609  and  _611
REMARK  254  A    between atoms: _611  and  _612
REMARK  255  A    between atoms: _611  and  _614
REMARK  256  A    between atoms: _614  and  _615
REMARK                            x       y       z     vdW  Elec       q    Type
REMARK                         _______ _______ _______ _____ _____    ______ ____
ROOT
ATOM      1  O   HOH     1      48.831   4.181  22.173  0.00  0.00    +0.000 OA
ENDROOT
TORSDOF 0
REMARK  Name = ../refined-set-2016/1x8r/1x8r_pocket.pdb
REMARK  256 active torsions:
REMARK  status: ('A' for Active; 'I' for Inactive)
REMARK    1  A    between atoms: _1  and  _3
REMARK    2  A    between atoms: _3  and  _4
REMARK    3  A    between atoms: _3  and  _6
REMARK    4  A    between atoms: _6  and  _7
REMARK    5  A    between atoms: _9  and  _11
REMARK    6  A    between atoms: _11  and  _12
REMARK    7  A    between atoms: _11  and  _14
REMARK    8  A    between atoms: _14  and  _15
REMARK    9  A    between atoms: _15  and  _16
REMARK   10  A    between atoms: _16  and  _17
REMARK   11  A    between atoms: _17  and  _18
REMARK   12  A    between atoms: _22  and  _24
REMARK   13  A    between atoms: _24  and  _25
REMARK   14  A    between atoms: _24  and  _27
REMARK   15  A    between atoms: _27  and  _28
REMARK   16  A    between atoms: _30  and  _32
REMARK   17  A    between atoms: _32  and  _33
REMARK   18  A    between atoms: _32  and  _35
REMARK   19  A    between atoms: _38  and  _40
REMARK   20  A    between atoms: _40  and  _41
REMARK   21  A    between atoms: _40  and  _43
REMARK   22  A    between atoms: _43  and  _44
REMARK   23  A    between atoms: _46  and  _48
REMARK   24  A    between atoms: _48  and  _49
REMARK   25  A    between atoms: _48  and  _51
REMARK   26  A    between atoms: _51  and  _52
REMARK   27  A    between atoms: _57  and  _59
REMARK   28  A    between atoms: _59  and  _60
REMARK   29  A    between atoms: _59  and  _62
REMARK   30  A    between atoms: _62  and  _63
REMARK   31  A    between atoms: _63  and  _64
REMARK   32  A    between atoms: _64  and  _65
REMARK   33  A    between atoms: _74  and  _76
REMARK   34  A    between atoms: _76  and  _77
REMARK   35  A    between atoms: _76  and  _79
REMARK   36  A    between atoms: _79  and  _80
REMARK   37  A    between atoms: _83  and  _85
REMARK   38  A    between atoms: _85  and  _86
REMARK   39  A    between atoms: _85  and  _88
REMARK   40  A    between atoms: _88  and  _89
REMARK   41  A    between atoms: _94  and  _96
REMARK   42  A    between atoms: _96  and  _97
REMARK   43  A    between atoms: _100  and  _102
REMARK   44  A    between atoms: _102  and  _103
REMARK   45  A    between atoms: _105  and  _107
REMARK   46  A    between atoms: _107  and  _108
REMARK   47  A    between atoms: _107  and  _110
REMARK   48  A    between atoms: _110  and  _111
REMARK   49  A    between atoms: _114  and  _116
REMARK   50  A    between atoms: _116  and  _117
REMARK   51  A    between atoms: _120  and  _122
REMARK   52  A    between atoms: _122  and  _123
REMARK   53  A    between atoms: _122  and  _125
REMARK   54  A    between atoms: _125  and  _126
REMARK   55  A    between atoms: _126  and  _127
REMARK   56  A    between atoms: _129  and  _131
REMARK   57  A    between atoms: _131  and  _132
REMARK   58  A    between atoms: _131  and  _134
REMARK   59  A    between atoms: _134  and  _135
REMARK   60  A    between atoms: _135  and  _136
REMARK   61  A    between atoms: _136  and  _137
REMARK   62  A    between atoms: _147  and  _148
REMARK   63  A    between atoms: _153  and  _155
REMARK   64  A    between atoms: _155  and  _156
REMARK   65  A    between atoms: _155  and  _158
REMARK   66  A    between atoms: _158  and  _159
REMARK   67  A    between atoms: _159  and  _160
REMARK   68  A    between atoms: _162  and  _164
REMARK   69  A    between atoms: _164  and  _165
REMARK   70  A    between atoms: _164  and  _167
REMARK   71  A    between atoms: _167  and  _168
REMARK   72  A    between atoms: _168  and  _169
REMARK   73  A    between atoms: _169  and  _170
REMARK   74  A    between atoms: _180  and  _181
REMARK   75  A    between atoms: _186  and  _188
REMARK   76  A    between atoms: _188  and  _189
REMARK   77  A    between atoms: _191  and  _193
REMARK   78  A    between atoms: _193  and  _194
REMARK   79  A    between atoms: _193  and  _196
REMARK   80  A    between atoms: _196  and  _197
REMARK   81  A    between atoms: _199  and  _201
REMARK   82  A    between atoms: _201  and  _202
REMARK   83  A    between atoms: _201  and  _204
REMARK   84  A    between atoms: _207  and  _209
REMARK   85  A    between atoms: _209  and  _210
REMARK   86  A    between atoms: _209  and  _212
REMARK   87  A    between atoms: _212  and  _213
REMARK   88  A    between atoms: _215  and  _217
REMARK   89  A    between atoms: _217  and  _218
REMARK   90  A    between atoms: _217  and  _220
REMARK   91  A    between atoms: _220  and  _221
REMARK   92  A    between atoms: _223  and  _225
REMARK   93  A    between atoms: _225  and  _226
REMARK   94  A    between atoms: _225  and  _228
REMARK   95  A    between atoms: _228  and  _229
REMARK   96  A    between atoms: _229  and  _230
REMARK   97  A    between atoms: _235  and  _237
REMARK   98  A    between atoms: _237  and  _238
REMARK   99  A    between atoms: _237  and  _240
REMARK  100  A    between atoms: _240  and  _241
REMARK  101  A    between atoms: _247  and  _249
REMARK  102  A    between atoms: _249  and  _250
REMARK  103  A    between atoms: _249  and  _252
REMARK  104  A    between atoms: _252  and  _253
REMARK  105  A    between atoms: _256  and  _258
REMARK  106  A    between atoms: _258  and  _259
REMARK  107  A    between atoms: _258  and  _261
REMARK  108  A    between atoms: _261  and  _262
REMARK  109  A    between atoms: _265  and  _267
REMARK  110  A    between atoms: _267  and  _268
REMARK  111  A    between atoms: _271  and  _273
REMARK  112  A    between atoms: _273  and  _274
REMARK  113  A    between atoms: _273  and  _276
REMARK  114  A    between atoms: _276  and  _277
REMARK  115  A    between atoms: _277  and  _278
REMARK  116  A    between atoms: _280  and  _282
REMARK  117  A    between atoms: _282  and  _283
REMARK  118  A    between atoms: _282  and  _285
REMARK  119  A    between atoms: _285  and  _286
REMARK  120  A    between atoms: _289  and  _291
REMARK  121  A    between atoms: _291  and  _292
REMARK  122  A    between atoms: _291  and  _294
REMARK  123  A    between atoms: _297  and  _299
REMARK  124  A    between atoms: _299  and  _300
REMARK  125  A    between atoms: _299  and  _302
REMARK  126  A    between atoms: _302  and  _303
REMARK  127  A    between atoms: _305  and  _307
REMARK  128  A    between atoms: _307  and  _308
REMARK  129  A    between atoms: _307  and  _310
REMARK  130  A    between atoms: _310  and  _311
REMARK  131  A    between atoms: _311  and  _312
REMARK  132  A    between atoms: _312  and  _313
REMARK  133  A    between atoms: _313  and  _314
REMARK  134  A    between atoms: _319  and  _320
REMARK  135  A    between atoms: _325  and  _327
REMARK  136  A    between atoms: _327  and  _328
REMARK  137  A    between atoms: _327  and  _330
REMARK  138  A    between atoms: _330  and  _331
REMARK  139  A    between atoms: _336  and  _337
REMARK  140  A    between atoms: _339  and  _341
REMARK  141  A    between atoms: _341  and  _342
REMARK  142  A    between atoms: _341  and  _344
REMARK  143  A    between atoms: _344  and  _345
REMARK  144  A    between atoms: _348  and  _350
REMARK  145  A    between atoms: _350  and  _351
REMARK  146  A    between atoms: _350  and  _353
REMARK  147  A    between atoms: _353  and  _354
REMARK  148  A    between atoms: _357  and  _359
REMARK  149  A    between atoms: _359  and  _360
REMARK  150  A    between atoms: _359  and  _362
REMARK  151  A    between atoms: _362  and  _363
REMARK  152  A    between atoms: _366  and  _368
REMARK  153  A    between atoms: _368  and  _369
REMARK  154  A    between atoms: _368  and  _371
REMARK  155  A    between atoms: _371  and  _372
REMARK  156  A    between atoms: _375  and  _377
REMARK  157  A    between atoms: _377  and  _378
REMARK  158  A    between atoms: _377  and  _380
REMARK  159  A    between atoms: _380  and  _381
REMARK  160  A    between atoms: _383  and  _385
REMARK  161  A    between atoms: _385  and  _386
REMARK  162  A    between atoms: _385  and  _388
REMARK  163  A    between atoms: _388  and  _389
REMARK  164  A    between atoms: _394  and  _395
REMARK  165  A    between atoms: _397  and  _399
REMARK  166  A    between atoms: _399  and  _400
REMARK  167  A    between atoms: _399  and  _402
REMARK  168  A    between atoms: _402  and  _403
REMARK  169  A    between atoms: _406  and  _408
REMARK  170  A    between atoms: _408  and  _409
REMARK  171  A    between atoms: _408  and  _411
REMARK  172  A    between atoms: _411  and  _412
REMARK  173  A    between atoms: _417  and  _419
REMARK  174  A    between atoms: _419  and  _420
REMARK  175  A    between atoms: _419  and  _422
REMARK  176  A    between atoms: _422  and  _423
REMARK  177  A    between atoms: _427  and  _428
REMARK  178  A    between atoms: _433  and  _435
REMARK  179  A    between atoms: _435  and  _436
REMARK  180  A    between atoms: _435  and  _438
REMARK  181  A    between atoms: _438  and  _439
REMARK  182  A    between atoms: _442  and  _444
REMARK  183  A    between atoms: _444  and  _445
REMARK  184  A    between atoms: _448  and  _450
REMARK  185  A    between atoms: _450  and  _451
REMARK  186  A    between atoms: _450  and  _453
REMARK  187  A    between atoms: _453  and  _454
REMARK  188  A    between atoms: _454  and  _455
REMARK  189  A    between atoms: _457  and  _459
REMARK  190  A    between atoms: _459  and  _460
REMARK  191  A    between atoms: _459  and  _462
REMARK  192  A    between atoms: _462  and  _463
REMARK  193  A    between atoms: _468  and  _470
REMARK  194  A    between atoms: _470  and  _471
REMARK  195  A    between atoms: _470  and  _473
REMARK  196  A    between atoms: _473  and  _474
REMARK  197  A    between atoms: _484  and  _486
REMARK  198  A    between atoms: _486  and  _487
REMARK  199  A    between atoms: _486  and  _489
REMARK  200  A    between atoms: _492  and  _494
REMARK  201  A    between atoms: _494  and  _495
REMARK  202  A    between atoms: _494  and  _497
REMARK  203  A    between atoms: _497  and  _498
REMARK  204  A    between atoms: _498  and  _499
REMARK  205  A    between atoms: _499  and  _500
REMARK  206  A    between atoms: _500  and  _501
REMARK  207  A    between atoms: _505  and  _507
REMARK  208  A    between atoms: _507  and  _508
REMARK  209  A    between atoms: _507  and  _510
REMARK  210  A    between atoms: _510  and  _511
REMARK  211  A    between atoms: _511  and  _512
REMARK  212  A    between atoms: _515  and  _517
REMARK  213  A    between atoms: _517  and  _518
REMARK  214  A    between atoms: _517  and  _520
REMARK  215  A    between atoms: _520  and  _521
REMARK  216  A    between atoms: _524  and  _526
REMARK  217  A    between atoms: _526  and  _527
REMARK  218  A    between atoms: _526  and  _529
REMARK  219  A    between atoms: _529  and  _530
REMARK  220  A    between atoms: _530  and  _531
REMARK  221  A    between atoms: _531  and  _532
REMARK  222  A    between atoms: _541  and  _543
REMARK  223  A    between atoms: _543  and  _544
REMARK  224  A    between atoms: _543  and  _546
REMARK  225  A    between atoms: _546  and  _547
REMARK  226  A    between atoms: _550  and  _552
REMARK  227  A    between atoms: _552  and  _553
REMARK  228  A    between atoms: _552  and  _555
REMARK  229  A    between atoms: _555  and  _556
REMARK  230  A    between atoms: _561  and  _563
REMARK  231  A    between atoms: _563  and  _564
REMARK  232  A    between atoms: _563  and  _566
REMARK  233  A    between atoms: _566  and  _567
REMARK  234  A    between atoms: _567  and  _568
REMARK  235  A    between atoms: _568  and  _569
REMARK  236  A    between atoms: _578  and  _580
REMARK  237  A    between atoms: _580  and  _581
REMARK  238  A    between atoms: _580  and  _583
REMARK  239  A    between atoms: _583  and  _584
REMARK  240  A    between atoms: _584  and  _585
REMARK  241  A    between atoms: _587  and  _589
REMARK  242  A    between atoms: _589  and  _590
REMARK  243  A    between atoms: _589  and  _592
REMARK  244  A    between atoms: _592  and  _593
REMARK  245  A    between atoms: _593  and  _594
REMARK  246  A    between atoms: _596  and  _598
REMARK  247  A    between atoms: _598  and  _599
REMARK  248  A    between atoms: _598  and  _601
REMARK  249  A    between atoms: _601  and  _602
REMARK  250  A    between atoms: _602  and  _603
REMARK  251  A    between atoms: _603  and  _604
REMARK  252  A    between atoms: _604  and  _605
REMARK  253  A    between atoms: _609  and  _611
REMARK  254  A    between atoms: _611  and  _612
REMARK  255  A    between atoms: _611  and  _614
REMARK  256  A    between atoms: _614  and  _615
REMARK                            x       y       z     vdW  Elec       q    Type
REMARK                         _______ _______ _______ _____ _____    ______ ____
ROOT
ATOM      1  O   HOH     1      54.838  16.152  34.089  0.00  0.00    +0.000 OA
ENDROOT
TORSDOF 0
REMARK  Name = ../refined-set-2016/1x8r/1x8r_pocket.pdb
REMARK  256 active torsions:
REMARK  status: ('A' for Active; 'I' for Inactive)
REMARK    1  A    between atoms: _1  and  _3
REMARK    2  A    between atoms: _3  and  _4
REMARK    3  A    between atoms: _3  and  _6
REMARK    4  A    between atoms: _6  and  _7
REMARK    5  A    between atoms: _9  and  _11
REMARK    6  A    between atoms: _11  and  _12
REMARK    7  A    between atoms: _11  and  _14
REMARK    8  A    between atoms: _14  and  _15
REMARK    9  A    between atoms: _15  and  _16
REMARK   10  A    between atoms: _16  and  _17
REMARK   11  A    between atoms: _17  and  _18
REMARK   12  A    between atoms: _22  and  _24
REMARK   13  A    between atoms: _24  and  _25
REMARK   14  A    between atoms: _24  and  _27
REMARK   15  A    between atoms: _27  and  _28
REMARK   16  A    between atoms: _30  and  _32
REMARK   17  A    between atoms: _32  and  _33
REMARK   18  A    between atoms: _32  and  _35
REMARK   19  A    between atoms: _38  and  _40
REMARK   20  A    between atoms: _40  and  _41
REMARK   21  A    between atoms: _40  and  _43
REMARK   22  A    between atoms: _43  and  _44
REMARK   23  A    between atoms: _46  and  _48
REMARK   24  A    between atoms: _48  and  _49
REMARK   25  A    between atoms: _48  and  _51
REMARK   26  A    between atoms: _51  and  _52
REMARK   27  A    between atoms: _57  and  _59
REMARK   28  A    between atoms: _59  and  _60
REMARK   29  A    between atoms: _59  and  _62
REMARK   30  A    between atoms: _62  and  _63
REMARK   31  A    between atoms: _63  and  _64
REMARK   32  A    between atoms: _64  and  _65
REMARK   33  A    between atoms: _74  and  _76
REMARK   34  A    between atoms: _76  and  _77
REMARK   35  A    between atoms: _76  and  _79
REMARK   36  A    between atoms: _79  and  _80
REMARK   37  A    between atoms: _83  and  _85
REMARK   38  A    between atoms: _85  and  _86
REMARK   39  A    between atoms: _85  and  _88
REMARK   40  A    between atoms: _88  and  _89
REMARK   41  A    between atoms: _94  and  _96
REMARK   42  A    between atoms: _96  and  _97
REMARK   43  A    between atoms: _100  and  _102
REMARK   44  A    between atoms: _102  and  _103
REMARK   45  A    between atoms: _105  and  _107
REMARK   46  A    between atoms: _107  and  _108
REMARK   47  A    between atoms: _107  and  _110
REMARK   48  A    between atoms: _110  and  _111
REMARK   49  A    between atoms: _114  and  _116
REMARK   50  A    between atoms: _116  and  _117
REMARK   51  A    between atoms: _120  and  _122
REMARK   52  A    between atoms: _122  and  _123
REMARK   53  A    between atoms: _122  and  _125
REMARK   54  A    between atoms: _125  and  _126
REMARK   55  A    between atoms: _126  and  _127
REMARK   56  A    between atoms: _129  and  _131
REMARK   57  A    between atoms: _131  and  _132
REMARK   58  A    between atoms: _131  and  _134
REMARK   59  A    between atoms: _134  and  _135
REMARK   60  A    between atoms: _135  and  _136
REMARK   61  A    between atoms: _136  and  _137
REMARK   62  A    between atoms: _147  and  _148
REMARK   63  A    between atoms: _153  and  _155
REMARK   64  A    between atoms: _155  and  _156
REMARK   65  A    between atoms: _155  and  _158
REMARK   66  A    between atoms: _158  and  _159
REMARK   67  A    between atoms: _159  and  _160
REMARK   68  A    between atoms: _162  and  _164
REMARK   69  A    between atoms: _164  and  _165
REMARK   70  A    between atoms: _164  and  _167
REMARK   71  A    between atoms: _167  and  _168
REMARK   72  A    between atoms: _168  and  _169
REMARK   73  A    between atoms: _169  and  _170
REMARK   74  A    between atoms: _180  and  _181
REMARK   75  A    between atoms: _186  and  _188
REMARK   76  A    between atoms: _188  and  _189
REMARK   77  A    between atoms: _191  and  _193
REMARK   78  A    between atoms: _193  and  _194
REMARK   79  A    between atoms: _193  and  _196
REMARK   80  A    between atoms: _196  and  _197
REMARK   81  A    between atoms: _199  and  _201
REMARK   82  A    between atoms: _201  and  _202
REMARK   83  A    between atoms: _201  and  _204
REMARK   84  A    between atoms: _207  and  _209
REMARK   85  A    between atoms: _209  and  _210
REMARK   86  A    between atoms: _209  and  _212
REMARK   87  A    between atoms: _212  and  _213
REMARK   88  A    between atoms: _215  and  _217
REMARK   89  A    between atoms: _217  and  _218
REMARK   90  A    between atoms: _217  and  _220
REMARK   91  A    between atoms: _220  and  _221
REMARK   92  A    between atoms: _223  and  _225
REMARK   93  A    between atoms: _225  and  _226
REMARK   94  A    between atoms: _225  and  _228
REMARK   95  A    between atoms: _228  and  _229
REMARK   96  A    between atoms: _229  and  _230
REMARK   97  A    between atoms: _235  and  _237
REMARK   98  A    between atoms: _237  and  _238
REMARK   99  A    between atoms: _237  and  _240
REMARK  100  A    between atoms: _240  and  _241
REMARK  101  A    between atoms: _247  and  _249
REMARK  102  A    between atoms: _249  and  _250
REMARK  103  A    between atoms: _249  and  _252
REMARK  104  A    between atoms: _252  and  _253
REMARK  105  A    between atoms: _256  and  _258
REMARK  106  A    between atoms: _258  and  _259
REMARK  107  A    between atoms: _258  and  _261
REMARK  108  A    between atoms: _261  and  _262
REMARK  109  A    between atoms: _265  and  _267
REMARK  110  A    between atoms: _267  and  _268
REMARK  111  A    between atoms: _271  and  _273
REMARK  112  A    between atoms: _273  and  _274
REMARK  113  A    between atoms: _273  and  _276
REMARK  114  A    between atoms: _276  and  _277
REMARK  115  A    between atoms: _277  and  _278
REMARK  116  A    between atoms: _280  and  _282
REMARK  117  A    between atoms: _282  and  _283
REMARK  118  A    between atoms: _282  and  _285
REMARK  119  A    between atoms: _285  and  _286
REMARK  120  A    between atoms: _289  and  _291
REMARK  121  A    between atoms: _291  and  _292
REMARK  122  A    between atoms: _291  and  _294
REMARK  123  A    between atoms: _297  and  _299
REMARK  124  A    between atoms: _299  and  _300
REMARK  125  A    between atoms: _299  and  _302
REMARK  126  A    between atoms: _302  and  _303
REMARK  127  A    between atoms: _305  and  _307
REMARK  128  A    between atoms: _307  and  _308
REMARK  129  A    between atoms: _307  and  _310
REMARK  130  A    between atoms: _310  and  _311
REMARK  131  A    between atoms: _311  and  _312
REMARK  132  A    between atoms: _312  and  _313
REMARK  133  A    between atoms: _313  and  _314
REMARK  134  A    between atoms: _319  and  _320
REMARK  135  A    between atoms: _325  and  _327
REMARK  136  A    between atoms: _327  and  _328
REMARK  137  A    between atoms: _327  and  _330
REMARK  138  A    between atoms: _330  and  _331
REMARK  139  A    between atoms: _336  and  _337
REMARK  140  A    between atoms: _339  and  _341
REMARK  141  A    between atoms: _341  and  _342
REMARK  142  A    between atoms: _341  and  _344
REMARK  143  A    between atoms: _344  and  _345
REMARK  144  A    between atoms: _348  and  _350
REMARK  145  A    between atoms: _350  and  _351
REMARK  146  A    between atoms: _350  and  _353
REMARK  147  A    between atoms: _353  and  _354
REMARK  148  A    between atoms: _357  and  _359
REMARK  149  A    between atoms: _359  and  _360
REMARK  150  A    between atoms: _359  and  _362
REMARK  151  A    between atoms: _362  and  _363
REMARK  152  A    between atoms: _366  and  _368
REMARK  153  A    between atoms: _368  and  _369
REMARK  154  A    between atoms: _368  and  _371
REMARK  155  A    between atoms: _371  and  _372
REMARK  156  A    between atoms: _375  and  _377
REMARK  157  A    between atoms: _377  and  _378
REMARK  158  A    between atoms: _377  and  _380
REMARK  159  A    between atoms: _380  and  _381
REMARK  160  A    between atoms: _383  and  _385
REMARK  161  A    between atoms: _385  and  _386
REMARK  162  A    between atoms: _385  and  _388
REMARK  163  A    between atoms: _388  and  _389
REMARK  164  A    between atoms: _394  and  _395
REMARK  165  A    between atoms: _397  and  _399
REMARK  166  A    between atoms: _399  and  _400
REMARK  167  A    between atoms: _399  and  _402
REMARK  168  A    between atoms: _402  and  _403
REMARK  169  A    between atoms: _406  and  _408
REMARK  170  A    between atoms: _408  and  _409
REMARK  171  A    between atoms: _408  and  _411
REMARK  172  A    between atoms: _411  and  _412
REMARK  173  A    between atoms: _417  and  _419
REMARK  174  A    between atoms: _419  and  _420
REMARK  175  A    between atoms: _419  and  _422
REMARK  176  A    between atoms: _422  and  _423
REMARK  177  A    between atoms: _427  and  _428
REMARK  178  A    between atoms: _433  and  _435
REMARK  179  A    between atoms: _435  and  _436
REMARK  180  A    between atoms: _435  and  _438
REMARK  181  A    between atoms: _438  and  _439
REMARK  182  A    between atoms: _442  and  _444
REMARK  183  A    between atoms: _444  and  _445
REMARK  184  A    between atoms: _448  and  _450
REMARK  185  A    between atoms: _450  and  _451
REMARK  186  A    between atoms: _450  and  _453
REMARK  187  A    between atoms: _453  and  _454
REMARK  188  A    between atoms: _454  and  _455
REMARK  189  A    between atoms: _457  and  _459
REMARK  190  A    between atoms: _459  and  _460
REMARK  191  A    between atoms: _459  and  _462
REMARK  192  A    between atoms: _462  and  _463
REMARK  193  A    between atoms: _468  and  _470
REMARK  194  A    between atoms: _470  and  _471
REMARK  195  A    between atoms: _470  and  _473
REMARK  196  A    between atoms: _473  and  _474
REMARK  197  A    between atoms: _484  and  _486
REMARK  198  A    between atoms: _486  and  _487
REMARK  199  A    between atoms: _486  and  _489
REMARK  200  A    between atoms: _492  and  _494
REMARK  201  A    between atoms: _494  and  _495
REMARK  202  A    between atoms: _494  and  _497
REMARK  203  A    between atoms: _497  and  _498
REMARK  204  A    between atoms: _498  and  _499
REMARK  205  A    between atoms: _499  and  _500
REMARK  206  A    between atoms: _500  and  _501
REMARK  207  A    between atoms: _505  and  _507
REMARK  208  A    between atoms: _507  and  _508
REMARK  209  A    between atoms: _507  and  _510
REMARK  210  A    between atoms: _510  and  _511
REMARK  211  A    between atoms: _511  and  _512
REMARK  212  A    between atoms: _515  and  _517
REMARK  213  A    between atoms: _517  and  _518
REMARK  214  A    between atoms: _517  and  _520
REMARK  215  A    between atoms: _520  and  _521
REMARK  216  A    between atoms: _524  and  _526
REMARK  217  A    between atoms: _526  and  _527
REMARK  218  A    between atoms: _526  and  _529
REMARK  219  A    between atoms: _529  and  _530
REMARK  220  A    between atoms: _530  and  _531
REMARK  221  A    between atoms: _531  and  _532
REMARK  222  A    between atoms: _541  and  _543
REMARK  223  A    between atoms: _543  and  _544
REMARK  224  A    between atoms: _543  and  _546
REMARK  225  A    between atoms: _546  and  _547
REMARK  226  A    between atoms: _550  and  _552
REMARK  227  A    between atoms: _552  and  _553
REMARK  228  A    between atoms: _552  and  _555
REMARK  229  A    between atoms: _555  and  _556
REMARK  230  A    between atoms: _561  and  _563
REMARK  231  A    between atoms: _563  and  _564
REMARK  232  A    between atoms: _563  and  _566
REMARK  233  A    between atoms: _566  and  _567
REMARK  234  A    between atoms: _567  and  _568
REMARK  235  A    between atoms: _568  and  _569
REMARK  236  A    between atoms: _578  and  _580
REMARK  237  A    between atoms: _580  and  _581
REMARK  238  A    between atoms: _580  and  _583
REMARK  239  A    between atoms: _583  and  _584
REMARK  240  A    between atoms: _584  and  _585
REMARK  241  A    between atoms: _587  and  _589
REMARK  242  A    between atoms: _589  and  _590
REMARK  243  A    between atoms: _589  and  _592
REMARK  244  A    between atoms: _592  and  _593
REMARK  245  A    between atoms: _593  and  _594
REMARK  246  A    between atoms: _596  and  _598
REMARK  247  A    between atoms: _598  and  _599
REMARK  248  A    between atoms: _598  and  _601
REMARK  249  A    between atoms: _601  and  _602
REMARK  250  A    between atoms: _602  and  _603
REMARK  251  A    between atoms: _603  and  _604
REMARK  252  A    between atoms: _604  and  _605
REMARK  253  A    between atoms: _609  and  _611
REMARK  254  A    between atoms: _611  and  _612
REMARK  255  A    between atoms: _611  and  _614
REMARK  256  A    between atoms: _614  and  _615
REMARK                            x       y       z     vdW  Elec       q    Type
REMARK                         _______ _______ _______ _____ _____    ______ ____
ROOT
ATOM      1  O   HOH     1      52.078  13.638  34.730  0.00  0.00    +0.000 OA
ENDROOT
TORSDOF 0
REMARK  Name = ../refined-set-2016/1x8r/1x8r_pocket.pdb
REMARK  256 active torsions:
REMARK  status: ('A' for Active; 'I' for Inactive)
REMARK    1  A    between atoms: _1  and  _3
REMARK    2  A    between atoms: _3  and  _4
REMARK    3  A    between atoms: _3  and  _6
REMARK    4  A    between atoms: _6  and  _7
REMARK    5  A    between atoms: _9  and  _11
REMARK    6  A    between atoms: _11  and  _12
REMARK    7  A    between atoms: _11  and  _14
REMARK    8  A    between atoms: _14  and  _15
REMARK    9  A    between atoms: _15  and  _16
REMARK   10  A    between atoms: _16  and  _17
REMARK   11  A    between atoms: _17  and  _18
REMARK   12  A    between atoms: _22  and  _24
REMARK   13  A    between atoms: _24  and  _25
REMARK   14  A    between atoms: _24  and  _27
REMARK   15  A    between atoms: _27  and  _28
REMARK   16  A    between atoms: _30  and  _32
REMARK   17  A    between atoms: _32  and  _33
REMARK   18  A    between atoms: _32  and  _35
REMARK   19  A    between atoms: _38  and  _40
REMARK   20  A    between atoms: _40  and  _41
REMARK   21  A    between atoms: _40  and  _43
REMARK   22  A    between atoms: _43  and  _44
REMARK   23  A    between atoms: _46  and  _48
REMARK   24  A    between atoms: _48  and  _49
REMARK   25  A    between atoms: _48  and  _51
REMARK   26  A    between atoms: _51  and  _52
REMARK   27  A    between atoms: _57  and  _59
REMARK   28  A    between atoms: _59  and  _60
REMARK   29  A    between atoms: _59  and  _62
REMARK   30  A    between atoms: _62  and  _63
REMARK   31  A    between atoms: _63  and  _64
REMARK   32  A    between atoms: _64  and  _65
REMARK   33  A    between atoms: _74  and  _76
REMARK   34  A    between atoms: _76  and  _77
REMARK   35  A    between atoms: _76  and  _79
REMARK   36  A    between atoms: _79  and  _80
REMARK   37  A    between atoms: _83  and  _85
REMARK   38  A    between atoms: _85  and  _86
REMARK   39  A    between atoms: _85  and  _88
REMARK   40  A    between atoms: _88  and  _89
REMARK   41  A    between atoms: _94  and  _96
REMARK   42  A    between atoms: _96  and  _97
REMARK   43  A    between atoms: _100  and  _102
REMARK   44  A    between atoms: _102  and  _103
REMARK   45  A    between atoms: _105  and  _107
REMARK   46  A    between atoms: _107  and  _108
REMARK   47  A    between atoms: _107  and  _110
REMARK   48  A    between atoms: _110  and  _111
REMARK   49  A    between atoms: _114  and  _116
REMARK   50  A    between atoms: _116  and  _117
REMARK   51  A    between atoms: _120  and  _122
REMARK   52  A    between atoms: _122  and  _123
REMARK   53  A    between atoms: _122  and  _125
REMARK   54  A    between atoms: _125  and  _126
REMARK   55  A    between atoms: _126  and  _127
REMARK   56  A    between atoms: _129  and  _131
REMARK   57  A    between atoms: _131  and  _132
REMARK   58  A    between atoms: _131  and  _134
REMARK   59  A    between atoms: _134  and  _135
REMARK   60  A    between atoms: _135  and  _136
REMARK   61  A    between atoms: _136  and  _137
REMARK   62  A    between atoms: _147  and  _148
REMARK   63  A    between atoms: _153  and  _155
REMARK   64  A    between atoms: _155  and  _156
REMARK   65  A    between atoms: _155  and  _158
REMARK   66  A    between atoms: _158  and  _159
REMARK   67  A    between atoms: _159  and  _160
REMARK   68  A    between atoms: _162  and  _164
REMARK   69  A    between atoms: _164  and  _165
REMARK   70  A    between atoms: _164  and  _167
REMARK   71  A    between atoms: _167  and  _168
REMARK   72  A    between atoms: _168  and  _169
REMARK   73  A    between atoms: _169  and  _170
REMARK   74  A    between atoms: _180  and  _181
REMARK   75  A    between atoms: _186  and  _188
REMARK   76  A    between atoms: _188  and  _189
REMARK   77  A    between atoms: _191  and  _193
REMARK   78  A    between atoms: _193  and  _194
REMARK   79  A    between atoms: _193  and  _196
REMARK   80  A    between atoms: _196  and  _197
REMARK   81  A    between atoms: _199  and  _201
REMARK   82  A    between atoms: _201  and  _202
REMARK   83  A    between atoms: _201  and  _204
REMARK   84  A    between atoms: _207  and  _209
REMARK   85  A    between atoms: _209  and  _210
REMARK   86  A    between atoms: _209  and  _212
REMARK   87  A    between atoms: _212  and  _213
REMARK   88  A    between atoms: _215  and  _217
REMARK   89  A    between atoms: _217  and  _218
REMARK   90  A    between atoms: _217  and  _220
REMARK   91  A    between atoms: _220  and  _221
REMARK   92  A    between atoms: _223  and  _225
REMARK   93  A    between atoms: _225  and  _226
REMARK   94  A    between atoms: _225  and  _228
REMARK   95  A    between atoms: _228  and  _229
REMARK   96  A    between atoms: _229  and  _230
REMARK   97  A    between atoms: _235  and  _237
REMARK   98  A    between atoms: _237  and  _238
REMARK   99  A    between atoms: _237  and  _240
REMARK  100  A    between atoms: _240  and  _241
REMARK  101  A    between atoms: _247  and  _249
REMARK  102  A    between atoms: _249  and  _250
REMARK  103  A    between atoms: _249  and  _252
REMARK  104  A    between atoms: _252  and  _253
REMARK  105  A    between atoms: _256  and  _258
REMARK  106  A    between atoms: _258  and  _259
REMARK  107  A    between atoms: _258  and  _261
REMARK  108  A    between atoms: _261  and  _262
REMARK  109  A    between atoms: _265  and  _267
REMARK  110  A    between atoms: _267  and  _268
REMARK  111  A    between atoms: _271  and  _273
REMARK  112  A    between atoms: _273  and  _274
REMARK  113  A    between atoms: _273  and  _276
REMARK  114  A    between atoms: _276  and  _277
REMARK  115  A    between atoms: _277  and  _278
REMARK  116  A    between atoms: _280  and  _282
REMARK  117  A    between atoms: _282  and  _283
REMARK  118  A    between atoms: _282  and  _285
REMARK  119  A    between atoms: _285  and  _286
REMARK  120  A    between atoms: _289  and  _291
REMARK  121  A    between atoms: _291  and  _292
REMARK  122  A    between atoms: _291  and  _294
REMARK  123  A    between atoms: _297  and  _299
REMARK  124  A    between atoms: _299  and  _300
REMARK  125  A    between atoms: _299  and  _302
REMARK  126  A    between atoms: _302  and  _303
REMARK  127  A    between atoms: _305  and  _307
REMARK  128  A    between atoms: _307  and  _308
REMARK  129  A    between atoms: _307  and  _310
REMARK  130  A    between atoms: _310  and  _311
REMARK  131  A    between atoms: _311  and  _312
REMARK  132  A    between atoms: _312  and  _313
REMARK  133  A    between atoms: _313  and  _314
REMARK  134  A    between atoms: _319  and  _320
REMARK  135  A    between atoms: _325  and  _327
REMARK  136  A    between atoms: _327  and  _328
REMARK  137  A    between atoms: _327  and  _330
REMARK  138  A    between atoms: _330  and  _331
REMARK  139  A    between atoms: _336  and  _337
REMARK  140  A    between atoms: _339  and  _341
REMARK  141  A    between atoms: _341  and  _342
REMARK  142  A    between atoms: _341  and  _344
REMARK  143  A    between atoms: _344  and  _345
REMARK  144  A    between atoms: _348  and  _350
REMARK  145  A    between atoms: _350  and  _351
REMARK  146  A    between atoms: _350  and  _353
REMARK  147  A    between atoms: _353  and  _354
REMARK  148  A    between atoms: _357  and  _359
REMARK  149  A    between atoms: _359  and  _360
REMARK  150  A    between atoms: _359  and  _362
REMARK  151  A    between atoms: _362  and  _363
REMARK  152  A    between atoms: _366  and  _368
REMARK  153  A    between atoms: _368  and  _369
REMARK  154  A    between atoms: _368  and  _371
REMARK  155  A    between atoms: _371  and  _372
REMARK  156  A    between atoms: _375  and  _377
REMARK  157  A    between atoms: _377  and  _378
REMARK  158  A    between atoms: _377  and  _380
REMARK  159  A    between atoms: _380  and  _381
REMARK  160  A    between atoms: _383  and  _385
REMARK  161  A    between atoms: _385  and  _386
REMARK  162  A    between atoms: _385  and  _388
REMARK  163  A    between atoms: _388  and  _389
REMARK  164  A    between atoms: _394  and  _395
REMARK  165  A    between atoms: _397  and  _399
REMARK  166  A    between atoms: _399  and  _400
REMARK  167  A    between atoms: _399  and  _402
REMARK  168  A    between atoms: _402  and  _403
REMARK  169  A    between atoms: _406  and  _408
REMARK  170  A    between atoms: _408  and  _409
REMARK  171  A    between atoms: _408  and  _411
REMARK  172  A    between atoms: _411  and  _412
REMARK  173  A    between atoms: _417  and  _419
REMARK  174  A    between atoms: _419  and  _420
REMARK  175  A    between atoms: _419  and  _422
REMARK  176  A    between atoms: _422  and  _423
REMARK  177  A    between atoms: _427  and  _428
REMARK  178  A    between atoms: _433  and  _435
REMARK  179  A    between atoms: _435  and  _436
REMARK  180  A    between atoms: _435  and  _438
REMARK  181  A    between atoms: _438  and  _439
REMARK  182  A    between atoms: _442  and  _444
REMARK  183  A    between atoms: _444  and  _445
REMARK  184  A    between atoms: _448  and  _450
REMARK  185  A    between atoms: _450  and  _451
REMARK  186  A    between atoms: _450  and  _453
REMARK  187  A    between atoms: _453  and  _454
REMARK  188  A    between atoms: _454  and  _455
REMARK  189  A    between atoms: _457  and  _459
REMARK  190  A    between atoms: _459  and  _460
REMARK  191  A    between atoms: _459  and  _462
REMARK  192  A    between atoms: _462  and  _463
REMARK  193  A    between atoms: _468  and  _470
REMARK  194  A    between atoms: _470  and  _471
REMARK  195  A    between atoms: _470  and  _473
REMARK  196  A    between atoms: _473  and  _474
REMARK  197  A    between atoms: _484  and  _486
REMARK  198  A    between atoms: _486  and  _487
REMARK  199  A    between atoms: _486  and  _489
REMARK  200  A    between atoms: _492  and  _494
REMARK  201  A    between atoms: _494  and  _495
REMARK  202  A    between atoms: _494  and  _497
REMARK  203  A    between atoms: _497  and  _498
REMARK  204  A    between atoms: _498  and  _499
REMARK  205  A    between atoms: _499  and  _500
REMARK  206  A    between atoms: _500  and  _501
REMARK  207  A    between atoms: _505  and  _507
REMARK  208  A    between atoms: _507  and  _508
REMARK  209  A    between atoms: _507  and  _510
REMARK  210  A    between atoms: _510  and  _511
REMARK  211  A    between atoms: _511  and  _512
REMARK  212  A    between atoms: _515  and  _517
REMARK  213  A    between atoms: _517  and  _518
REMARK  214  A    between atoms: _517  and  _520
REMARK  215  A    between atoms: _520  and  _521
REMARK  216  A    between atoms: _524  and  _526
REMARK  217  A    between atoms: _526  and  _527
REMARK  218  A    between atoms: _526  and  _529
REMARK  219  A    between atoms: _529  and  _530
REMARK  220  A    between atoms: _530  and  _531
REMARK  221  A    between atoms: _531  and  _532
REMARK  222  A    between atoms: _541  and  _543
REMARK  223  A    between atoms: _543  and  _544
REMARK  224  A    between atoms: _543  and  _546
REMARK  225  A    between atoms: _546  and  _547
REMARK  226  A    between atoms: _550  and  _552
REMARK  227  A    between atoms: _552  and  _553
REMARK  228  A    between atoms: _552  and  _555
REMARK  229  A    between atoms: _555  and  _556
REMARK  230  A    between atoms: _561  and  _563
REMARK  231  A    between atoms: _563  and  _564
REMARK  232  A    between atoms: _563  and  _566
REMARK  233  A    between atoms: _566  and  _567
REMARK  234  A    between atoms: _567  and  _568
REMARK  235  A    between atoms: _568  and  _569
REMARK  236  A    between atoms: _578  and  _580
REMARK  237  A    between atoms: _580  and  _581
REMARK  238  A    between atoms: _580  and  _583
REMARK  239  A    between atoms: _583  and  _584
REMARK  240  A    between atoms: _584  and  _585
REMARK  241  A    between atoms: _587  and  _589
REMARK  242  A    between atoms: _589  and  _590
REMARK  243  A    between atoms: _589  and  _592
REMARK  244  A    between atoms: _592  and  _593
REMARK  245  A    between atoms: _593  and  _594
REMARK  246  A    between atoms: _596  and  _598
REMARK  247  A    between atoms: _598  and  _599
REMARK  248  A    between atoms: _598  and  _601
REMARK  249  A    between atoms: _601  and  _602
REMARK  250  A    between atoms: _602  and  _603
REMARK  251  A    between atoms: _603  and  _604
REMARK  252  A    between atoms: _604  and  _605
REMARK  253  A    between atoms: _609  and  _611
REMARK  254  A    between atoms: _611  and  _612
REMARK  255  A    between atoms: _611  and  _614
REMARK  256  A    between atoms: _614  and  _615
REMARK                            x       y       z     vdW  Elec       q    Type
REMARK                         _______ _______ _______ _____ _____    ______ ____
ROOT
ATOM      1  O   HOH     1      63.996  13.431  35.263  0.00  0.00    +0.000 OA
ENDROOT
TORSDOF 0
REMARK  Name = ../refined-set-2016/1x8r/1x8r_pocket.pdb
REMARK  256 active torsions:
REMARK  status: ('A' for Active; 'I' for Inactive)
REMARK    1  A    between atoms: _1  and  _3
REMARK    2  A    between atoms: _3  and  _4
REMARK    3  A    between atoms: _3  and  _6
REMARK    4  A    between atoms: _6  and  _7
REMARK    5  A    between atoms: _9  and  _11
REMARK    6  A    between atoms: _11  and  _12
REMARK    7  A    between atoms: _11  and  _14
REMARK    8  A    between atoms: _14  and  _15
REMARK    9  A    between atoms: _15  and  _16
REMARK   10  A    between atoms: _16  and  _17
REMARK   11  A    between atoms: _17  and  _18
REMARK   12  A    between atoms: _22  and  _24
REMARK   13  A    between atoms: _24  and  _25
REMARK   14  A    between atoms: _24  and  _27
REMARK   15  A    between atoms: _27  and  _28
REMARK   16  A    between atoms: _30  and  _32
REMARK   17  A    between atoms: _32  and  _33
REMARK   18  A    between atoms: _32  and  _35
REMARK   19  A    between atoms: _38  and  _40
REMARK   20  A    between atoms: _40  and  _41
REMARK   21  A    between atoms: _40  and  _43
REMARK   22  A    between atoms: _43  and  _44
REMARK   23  A    between atoms: _46  and  _48
REMARK   24  A    between atoms: _48  and  _49
REMARK   25  A    between atoms: _48  and  _51
REMARK   26  A    between atoms: _51  and  _52
REMARK   27  A    between atoms: _57  and  _59
REMARK   28  A    between atoms: _59  and  _60
REMARK   29  A    between atoms: _59  and  _62
REMARK   30  A    between atoms: _62  and  _63
REMARK   31  A    between atoms: _63  and  _64
REMARK   32  A    between atoms: _64  and  _65
REMARK   33  A    between atoms: _74  and  _76
REMARK   34  A    between atoms: _76  and  _77
REMARK   35  A    between atoms: _76  and  _79
REMARK   36  A    between atoms: _79  and  _80
REMARK   37  A    between atoms: _83  and  _85
REMARK   38  A    between atoms: _85  and  _86
REMARK   39  A    between atoms: _85  and  _88
REMARK   40  A    between atoms: _88  and  _89
REMARK   41  A    between atoms: _94  and  _96
REMARK   42  A    between atoms: _96  and  _97
REMARK   43  A    between atoms: _100  and  _102
REMARK   44  A    between atoms: _102  and  _103
REMARK   45  A    between atoms: _105  and  _107
REMARK   46  A    between atoms: _107  and  _108
REMARK   47  A    between atoms: _107  and  _110
REMARK   48  A    between atoms: _110  and  _111
REMARK   49  A    between atoms: _114  and  _116
REMARK   50  A    between atoms: _116  and  _117
REMARK   51  A    between atoms: _120  and  _122
REMARK   52  A    between atoms: _122  and  _123
REMARK   53  A    between atoms: _122  and  _125
REMARK   54  A    between atoms: _125  and  _126
REMARK   55  A    between atoms: _126  and  _127
REMARK   56  A    between atoms: _129  and  _131
REMARK   57  A    between atoms: _131  and  _132
REMARK   58  A    between atoms: _131  and  _134
REMARK   59  A    between atoms: _134  and  _135
REMARK   60  A    between atoms: _135  and  _136
REMARK   61  A    between atoms: _136  and  _137
REMARK   62  A    between atoms: _147  and  _148
REMARK   63  A    between atoms: _153  and  _155
REMARK   64  A    between atoms: _155  and  _156
REMARK   65  A    between atoms: _155  and  _158
REMARK   66  A    between atoms: _158  and  _159
REMARK   67  A    between atoms: _159  and  _160
REMARK   68  A    between atoms: _162  and  _164
REMARK   69  A    between atoms: _164  and  _165
REMARK   70  A    between atoms: _164  and  _167
REMARK   71  A    between atoms: _167  and  _168
REMARK   72  A    between atoms: _168  and  _169
REMARK   73  A    between atoms: _169  and  _170
REMARK   74  A    between atoms: _180  and  _181
REMARK   75  A    between atoms: _186  and  _188
REMARK   76  A    between atoms: _188  and  _189
REMARK   77  A    between atoms: _191  and  _193
REMARK   78  A    between atoms: _193  and  _194
REMARK   79  A    between atoms: _193  and  _196
REMARK   80  A    between atoms: _196  and  _197
REMARK   81  A    between atoms: _199  and  _201
REMARK   82  A    between atoms: _201  and  _202
REMARK   83  A    between atoms: _201  and  _204
REMARK   84  A    between atoms: _207  and  _209
REMARK   85  A    between atoms: _209  and  _210
REMARK   86  A    between atoms: _209  and  _212
REMARK   87  A    between atoms: _212  and  _213
REMARK   88  A    between atoms: _215  and  _217
REMARK   89  A    between atoms: _217  and  _218
REMARK   90  A    between atoms: _217  and  _220
REMARK   91  A    between atoms: _220  and  _221
REMARK   92  A    between atoms: _223  and  _225
REMARK   93  A    between atoms: _225  and  _226
REMARK   94  A    between atoms: _225  and  _228
REMARK   95  A    between atoms: _228  and  _229
REMARK   96  A    between atoms: _229  and  _230
REMARK   97  A    between atoms: _235  and  _237
REMARK   98  A    between atoms: _237  and  _238
REMARK   99  A    between atoms: _237  and  _240
REMARK  100  A    between atoms: _240  and  _241
REMARK  101  A    between atoms: _247  and  _249
REMARK  102  A    between atoms: _249  and  _250
REMARK  103  A    between atoms: _249  and  _252
REMARK  104  A    between atoms: _252  and  _253
REMARK  105  A    between atoms: _256  and  _258
REMARK  106  A    between atoms: _258  and  _259
REMARK  107  A    between atoms: _258  and  _261
REMARK  108  A    between atoms: _261  and  _262
REMARK  109  A    between atoms: _265  and  _267
REMARK  110  A    between atoms: _267  and  _268
REMARK  111  A    between atoms: _271  and  _273
REMARK  112  A    between atoms: _273  and  _274
REMARK  113  A    between atoms: _273  and  _276
REMARK  114  A    between atoms: _276  and  _277
REMARK  115  A    between atoms: _277  and  _278
REMARK  116  A    between atoms: _280  and  _282
REMARK  117  A    between atoms: _282  and  _283
REMARK  118  A    between atoms: _282  and  _285
REMARK  119  A    between atoms: _285  and  _286
REMARK  120  A    between atoms: _289  and  _291
REMARK  121  A    between atoms: _291  and  _292
REMARK  122  A    between atoms: _291  and  _294
REMARK  123  A    between atoms: _297  and  _299
REMARK  124  A    between atoms: _299  and  _300
REMARK  125  A    between atoms: _299  and  _302
REMARK  126  A    between atoms: _302  and  _303
REMARK  127  A    between atoms: _305  and  _307
REMARK  128  A    between atoms: _307  and  _308
REMARK  129  A    between atoms: _307  and  _310
REMARK  130  A    between atoms: _310  and  _311
REMARK  131  A    between atoms: _311  and  _312
REMARK  132  A    between atoms: _312  and  _313
REMARK  133  A    between atoms: _313  and  _314
REMARK  134  A    between atoms: _319  and  _320
REMARK  135  A    between atoms: _325  and  _327
REMARK  136  A    between atoms: _327  and  _328
REMARK  137  A    between atoms: _327  and  _330
REMARK  138  A    between atoms: _330  and  _331
REMARK  139  A    between atoms: _336  and  _337
REMARK  140  A    between atoms: _339  and  _341
REMARK  141  A    between atoms: _341  and  _342
REMARK  142  A    between atoms: _341  and  _344
REMARK  143  A    between atoms: _344  and  _345
REMARK  144  A    between atoms: _348  and  _350
REMARK  145  A    between atoms: _350  and  _351
REMARK  146  A    between atoms: _350  and  _353
REMARK  147  A    between atoms: _353  and  _354
REMARK  148  A    between atoms: _357  and  _359
REMARK  149  A    between atoms: _359  and  _360
REMARK  150  A    between atoms: _359  and  _362
REMARK  151  A    between atoms: _362  and  _363
REMARK  152  A    between atoms: _366  and  _368
REMARK  153  A    between atoms: _368  and  _369
REMARK  154  A    between atoms: _368  and  _371
REMARK  155  A    between atoms: _371  and  _372
REMARK  156  A    between atoms: _375  and  _377
REMARK  157  A    between atoms: _377  and  _378
REMARK  158  A    between atoms: _377  and  _380
REMARK  159  A    between atoms: _380  and  _381
REMARK  160  A    between atoms: _383  and  _385
REMARK  161  A    between atoms: _385  and  _386
REMARK  162  A    between atoms: _385  and  _388
REMARK  163  A    between atoms: _388  and  _389
REMARK  164  A    between atoms: _394  and  _395
REMARK  165  A    between atoms: _397  and  _399
REMARK  166  A    between atoms: _399  and  _400
REMARK  167  A    between atoms: _399  and  _402
REMARK  168  A    between atoms: _402  and  _403
REMARK  169  A    between atoms: _406  and  _408
REMARK  170  A    between atoms: _408  and  _409
REMARK  171  A    between atoms: _408  and  _411
REMARK  172  A    between atoms: _411  and  _412
REMARK  173  A    between atoms: _417  and  _419
REMARK  174  A    between atoms: _419  and  _420
REMARK  175  A    between atoms: _419  and  _422
REMARK  176  A    between atoms: _422  and  _423
REMARK  177  A    between atoms: _427  and  _428
REMARK  178  A    between atoms: _433  and  _435
REMARK  179  A    between atoms: _435  and  _436
REMARK  180  A    between atoms: _435  and  _438
REMARK  181  A    between atoms: _438  and  _439
REMARK  182  A    between atoms: _442  and  _444
REMARK  183  A    between atoms: _444  and  _445
REMARK  184  A    between atoms: _448  and  _450
REMARK  185  A    between atoms: _450  and  _451
REMARK  186  A    between atoms: _450  and  _453
REMARK  187  A    between atoms: _453  and  _454
REMARK  188  A    between atoms: _454  and  _455
REMARK  189  A    between atoms: _457  and  _459
REMARK  190  A    between atoms: _459  and  _460
REMARK  191  A    between atoms: _459  and  _462
REMARK  192  A    between atoms: _462  and  _463
REMARK  193  A    between atoms: _468  and  _470
REMARK  194  A    between atoms: _470  and  _471
REMARK  195  A    between atoms: _470  and  _473
REMARK  196  A    between atoms: _473  and  _474
REMARK  197  A    between atoms: _484  and  _486
REMARK  198  A    between atoms: _486  and  _487
REMARK  199  A    between atoms: _486  and  _489
REMARK  200  A    between atoms: _492  and  _494
REMARK  201  A    between atoms: _494  and  _495
REMARK  202  A    between atoms: _494  and  _497
REMARK  203  A    between atoms: _497  and  _498
REMARK  204  A    between atoms: _498  and  _499
REMARK  205  A    between atoms: _499  and  _500
REMARK  206  A    between atoms: _500  and  _501
REMARK  207  A    between atoms: _505  and  _507
REMARK  208  A    between atoms: _507  and  _508
REMARK  209  A    between atoms: _507  and  _510
REMARK  210  A    between atoms: _510  and  _511
REMARK  211  A    between atoms: _511  and  _512
REMARK  212  A    between atoms: _515  and  _517
REMARK  213  A    between atoms: _517  and  _518
REMARK  214  A    between atoms: _517  and  _520
REMARK  215  A    between atoms: _520  and  _521
REMARK  216  A    between atoms: _524  and  _526
REMARK  217  A    between atoms: _526  and  _527
REMARK  218  A    between atoms: _526  and  _529
REMARK  219  A    between atoms: _529  and  _530
REMARK  220  A    between atoms: _530  and  _531
REMARK  221  A    between atoms: _531  and  _532
REMARK  222  A    between atoms: _541  and  _543
REMARK  223  A    between atoms: _543  and  _544
REMARK  224  A    between atoms: _543  and  _546
REMARK  225  A    between atoms: _546  and  _547
REMARK  226  A    between atoms: _550  and  _552
REMARK  227  A    between atoms: _552  and  _553
REMARK  228  A    between atoms: _552  and  _555
REMARK  229  A    between atoms: _555  and  _556
REMARK  230  A    between atoms: _561  and  _563
REMARK  231  A    between atoms: _563  and  _564
REMARK  232  A    between atoms: _563  and  _566
REMARK  233  A    between atoms: _566  and  _567
REMARK  234  A    between atoms: _567  and  _568
REMARK  235  A    between atoms: _568  and  _569
REMARK  236  A    between atoms: _578  and  _580
REMARK  237  A    between atoms: _580  and  _581
REMARK  238  A    between atoms: _580  and  _583
REMARK  239  A    between atoms: _583  and  _584
REMARK  240  A    between atoms: _584  and  _585
REMARK  241  A    between atoms: _587  and  _589
REMARK  242  A    between atoms: _589  and  _590
REMARK  243  A    between atoms: _589  and  _592
REMARK  244  A    between atoms: _592  and  _593
REMARK  245  A    between atoms: _593  and  _594
REMARK  246  A    between atoms: _596  and  _598
REMARK  247  A    between atoms: _598  and  _599
REMARK  248  A    between atoms: _598  and  _601
REMARK  249  A    between atoms: _601  and  _602
REMARK  250  A    between atoms: _602  and  _603
REMARK  251  A    between atoms: _603  and  _604
REMARK  252  A    between atoms: _604  and  _605
REMARK  253  A    between atoms: _609  and  _611
REMARK  254  A    between atoms: _611  and  _612
REMARK  255  A    between atoms: _611  and  _614
REMARK  256  A    between atoms: _614  and  _615
REMARK                            x       y       z     vdW  Elec       q    Type
REMARK                         _______ _______ _______ _____ _____    ______ ____
ROOT
ATOM      1  O   HOH     1      57.027   3.977  25.251  0.00  0.00    +0.000 OA
ENDROOT
TORSDOF 0
REMARK  Name = ../refined-set-2016/1x8r/1x8r_pocket.pdb
REMARK  256 active torsions:
REMARK  status: ('A' for Active; 'I' for Inactive)
REMARK    1  A    between atoms: _1  and  _3
REMARK    2  A    between atoms: _3  and  _4
REMARK    3  A    between atoms: _3  and  _6
REMARK    4  A    between atoms: _6  and  _7
REMARK    5  A    between atoms: _9  and  _11
REMARK    6  A    between atoms: _11  and  _12
REMARK    7  A    between atoms: _11  and  _14
REMARK    8  A    between atoms: _14  and  _15
REMARK    9  A    between atoms: _15  and  _16
REMARK   10  A    between atoms: _16  and  _17
REMARK   11  A    between atoms: _17  and  _18
REMARK   12  A    between atoms: _22  and  _24
REMARK   13  A    between atoms: _24  and  _25
REMARK   14  A    between atoms: _24  and  _27
REMARK   15  A    between atoms: _27  and  _28
REMARK   16  A    between atoms: _30  and  _32
REMARK   17  A    between atoms: _32  and  _33
REMARK   18  A    between atoms: _32  and  _35
REMARK   19  A    between atoms: _38  and  _40
REMARK   20  A    between atoms: _40  and  _41
REMARK   21  A    between atoms: _40  and  _43
REMARK   22  A    between atoms: _43  and  _44
REMARK   23  A    between atoms: _46  and  _48
REMARK   24  A    between atoms: _48  and  _49
REMARK   25  A    between atoms: _48  and  _51
REMARK   26  A    between atoms: _51  and  _52
REMARK   27  A    between atoms: _57  and  _59
REMARK   28  A    between atoms: _59  and  _60
REMARK   29  A    between atoms: _59  and  _62
REMARK   30  A    between atoms: _62  and  _63
REMARK   31  A    between atoms: _63  and  _64
REMARK   32  A    between atoms: _64  and  _65
REMARK   33  A    between atoms: _74  and  _76
REMARK   34  A    between atoms: _76  and  _77
REMARK   35  A    between atoms: _76  and  _79
REMARK   36  A    between atoms: _79  and  _80
REMARK   37  A    between atoms: _83  and  _85
REMARK   38  A    between atoms: _85  and  _86
REMARK   39  A    between atoms: _85  and  _88
REMARK   40  A    between atoms: _88  and  _89
REMARK   41  A    between atoms: _94  and  _96
REMARK   42  A    between atoms: _96  and  _97
REMARK   43  A    between atoms: _100  and  _102
REMARK   44  A    between atoms: _102  and  _103
REMARK   45  A    between atoms: _105  and  _107
REMARK   46  A    between atoms: _107  and  _108
REMARK   47  A    between atoms: _107  and  _110
REMARK   48  A    between atoms: _110  and  _111
REMARK   49  A    between atoms: _114  and  _116
REMARK   50  A    between atoms: _116  and  _117
REMARK   51  A    between atoms: _120  and  _122
REMARK   52  A    between atoms: _122  and  _123
REMARK   53  A    between atoms: _122  and  _125
REMARK   54  A    between atoms: _125  and  _126
REMARK   55  A    between atoms: _126  and  _127
REMARK   56  A    between atoms: _129  and  _131
REMARK   57  A    between atoms: _131  and  _132
REMARK   58  A    between atoms: _131  and  _134
REMARK   59  A    between atoms: _134  and  _135
REMARK   60  A    between atoms: _135  and  _136
REMARK   61  A    between atoms: _136  and  _137
REMARK   62  A    between atoms: _147  and  _148
REMARK   63  A    between atoms: _153  and  _155
REMARK   64  A    between atoms: _155  and  _156
REMARK   65  A    between atoms: _155  and  _158
REMARK   66  A    between atoms: _158  and  _159
REMARK   67  A    between atoms: _159  and  _160
REMARK   68  A    between atoms: _162  and  _164
REMARK   69  A    between atoms: _164  and  _165
REMARK   70  A    between atoms: _164  and  _167
REMARK   71  A    between atoms: _167  and  _168
REMARK   72  A    between atoms: _168  and  _169
REMARK   73  A    between atoms: _169  and  _170
REMARK   74  A    between atoms: _180  and  _181
REMARK   75  A    between atoms: _186  and  _188
REMARK   76  A    between atoms: _188  and  _189
REMARK   77  A    between atoms: _191  and  _193
REMARK   78  A    between atoms: _193  and  _194
REMARK   79  A    between atoms: _193  and  _196
REMARK   80  A    between atoms: _196  and  _197
REMARK   81  A    between atoms: _199  and  _201
REMARK   82  A    between atoms: _201  and  _202
REMARK   83  A    between atoms: _201  and  _204
REMARK   84  A    between atoms: _207  and  _209
REMARK   85  A    between atoms: _209  and  _210
REMARK   86  A    between atoms: _209  and  _212
REMARK   87  A    between atoms: _212  and  _213
REMARK   88  A    between atoms: _215  and  _217
REMARK   89  A    between atoms: _217  and  _218
REMARK   90  A    between atoms: _217  and  _220
REMARK   91  A    between atoms: _220  and  _221
REMARK   92  A    between atoms: _223  and  _225
REMARK   93  A    between atoms: _225  and  _226
REMARK   94  A    between atoms: _225  and  _228
REMARK   95  A    between atoms: _228  and  _229
REMARK   96  A    between atoms: _229  and  _230
REMARK   97  A    between atoms: _235  and  _237
REMARK   98  A    between atoms: _237  and  _238
REMARK   99  A    between atoms: _237  and  _240
REMARK  100  A    between atoms: _240  and  _241
REMARK  101  A    between atoms: _247  and  _249
REMARK  102  A    between atoms: _249  and  _250
REMARK  103  A    between atoms: _249  and  _252
REMARK  104  A    between atoms: _252  and  _253
REMARK  105  A    between atoms: _256  and  _258
REMARK  106  A    between atoms: _258  and  _259
REMARK  107  A    between atoms: _258  and  _261
REMARK  108  A    between atoms: _261  and  _262
REMARK  109  A    between atoms: _265  and  _267
REMARK  110  A    between atoms: _267  and  _268
REMARK  111  A    between atoms: _271  and  _273
REMARK  112  A    between atoms: _273  and  _274
REMARK  113  A    between atoms: _273  and  _276
REMARK  114  A    between atoms: _276  and  _277
REMARK  115  A    between atoms: _277  and  _278
REMARK  116  A    between atoms: _280  and  _282
REMARK  117  A    between atoms: _282  and  _283
REMARK  118  A    between atoms: _282  and  _285
REMARK  119  A    between atoms: _285  and  _286
REMARK  120  A    between atoms: _289  and  _291
REMARK  121  A    between atoms: _291  and  _292
REMARK  122  A    between atoms: _291  and  _294
REMARK  123  A    between atoms: _297  and  _299
REMARK  124  A    between atoms: _299  and  _300
REMARK  125  A    between atoms: _299  and  _302
REMARK  126  A    between atoms: _302  and  _303
REMARK  127  A    between atoms: _305  and  _307
REMARK  128  A    between atoms: _307  and  _308
REMARK  129  A    between atoms: _307  and  _310
REMARK  130  A    between atoms: _310  and  _311
REMARK  131  A    between atoms: _311  and  _312
REMARK  132  A    between atoms: _312  and  _313
REMARK  133  A    between atoms: _313  and  _314
REMARK  134  A    between atoms: _319  and  _320
REMARK  135  A    between atoms: _325  and  _327
REMARK  136  A    between atoms: _327  and  _328
REMARK  137  A    between atoms: _327  and  _330
REMARK  138  A    between atoms: _330  and  _331
REMARK  139  A    between atoms: _336  and  _337
REMARK  140  A    between atoms: _339  and  _341
REMARK  141  A    between atoms: _341  and  _342
REMARK  142  A    between atoms: _341  and  _344
REMARK  143  A    between atoms: _344  and  _345
REMARK  144  A    between atoms: _348  and  _350
REMARK  145  A    between atoms: _350  and  _351
REMARK  146  A    between atoms: _350  and  _353
REMARK  147  A    between atoms: _353  and  _354
REMARK  148  A    between atoms: _357  and  _359
REMARK  149  A    between atoms: _359  and  _360
REMARK  150  A    between atoms: _359  and  _362
REMARK  151  A    between atoms: _362  and  _363
REMARK  152  A    between atoms: _366  and  _368
REMARK  153  A    between atoms: _368  and  _369
REMARK  154  A    between atoms: _368  and  _371
REMARK  155  A    between atoms: _371  and  _372
REMARK  156  A    between atoms: _375  and  _377
REMARK  157  A    between atoms: _377  and  _378
REMARK  158  A    between atoms: _377  and  _380
REMARK  159  A    between atoms: _380  and  _381
REMARK  160  A    between atoms: _383  and  _385
REMARK  161  A    between atoms: _385  and  _386
REMARK  162  A    between atoms: _385  and  _388
REMARK  163  A    between atoms: _388  and  _389
REMARK  164  A    between atoms: _394  and  _395
REMARK  165  A    between atoms: _397  and  _399
REMARK  166  A    between atoms: _399  and  _400
REMARK  167  A    between atoms: _399  and  _402
REMARK  168  A    between atoms: _402  and  _403
REMARK  169  A    between atoms: _406  and  _408
REMARK  170  A    between atoms: _408  and  _409
REMARK  171  A    between atoms: _408  and  _411
REMARK  172  A    between atoms: _411  and  _412
REMARK  173  A    between atoms: _417  and  _419
REMARK  174  A    between atoms: _419  and  _420
REMARK  175  A    between atoms: _419  and  _422
REMARK  176  A    between atoms: _422  and  _423
REMARK  177  A    between atoms: _427  and  _428
REMARK  178  A    between atoms: _433  and  _435
REMARK  179  A    between atoms: _435  and  _436
REMARK  180  A    between atoms: _435  and  _438
REMARK  181  A    between atoms: _438  and  _439
REMARK  182  A    between atoms: _442  and  _444
REMARK  183  A    between atoms: _444  and  _445
REMARK  184  A    between atoms: _448  and  _450
REMARK  185  A    between atoms: _450  and  _451
REMARK  186  A    between atoms: _450  and  _453
REMARK  187  A    between atoms: _453  and  _454
REMARK  188  A    between atoms: _454  and  _455
REMARK  189  A    between atoms: _457  and  _459
REMARK  190  A    between atoms: _459  and  _460
REMARK  191  A    between atoms: _459  and  _462
REMARK  192  A    between atoms: _462  and  _463
REMARK  193  A    between atoms: _468  and  _470
REMARK  194  A    between atoms: _470  and  _471
REMARK  195  A    between atoms: _470  and  _473
REMARK  196  A    between atoms: _473  and  _474
REMARK  197  A    between atoms: _484  and  _486
REMARK  198  A    between atoms: _486  and  _487
REMARK  199  A    between atoms: _486  and  _489
REMARK  200  A    between atoms: _492  and  _494
REMARK  201  A    between atoms: _494  and  _495
REMARK  202  A    between atoms: _494  and  _497
REMARK  203  A    between atoms: _497  and  _498
REMARK  204  A    between atoms: _498  and  _499
REMARK  205  A    between atoms: _499  and  _500
REMARK  206  A    between atoms: _500  and  _501
REMARK  207  A    between atoms: _505  and  _507
REMARK  208  A    between atoms: _507  and  _508
REMARK  209  A    between atoms: _507  and  _510
REMARK  210  A    between atoms: _510  and  _511
REMARK  211  A    between atoms: _511  and  _512
REMARK  212  A    between atoms: _515  and  _517
REMARK  213  A    between atoms: _517  and  _518
REMARK  214  A    between atoms: _517  and  _520
REMARK  215  A    between atoms: _520  and  _521
REMARK  216  A    between atoms: _524  and  _526
REMARK  217  A    between atoms: _526  and  _527
REMARK  218  A    between atoms: _526  and  _529
REMARK  219  A    between atoms: _529  and  _530
REMARK  220  A    between atoms: _530  and  _531
REMARK  221  A    between atoms: _531  and  _532
REMARK  222  A    between atoms: _541  and  _543
REMARK  223  A    between atoms: _543  and  _544
REMARK  224  A    between atoms: _543  and  _546
REMARK  225  A    between atoms: _546  and  _547
REMARK  226  A    between atoms: _550  and  _552
REMARK  227  A    between atoms: _552  and  _553
REMARK  228  A    between atoms: _552  and  _555
REMARK  229  A    between atoms: _555  and  _556
REMARK  230  A    between atoms: _561  and  _563
REMARK  231  A    between atoms: _563  and  _564
REMARK  232  A    between atoms: _563  and  _566
REMARK  233  A    between atoms: _566  and  _567
REMARK  234  A    between atoms: _567  and  _568
REMARK  235  A    between atoms: _568  and  _569
REMARK  236  A    between atoms: _578  and  _580
REMARK  237  A    between atoms: _580  and  _581
REMARK  238  A    between atoms: _580  and  _583
REMARK  239  A    between atoms: _583  and  _584
REMARK  240  A    between atoms: _584  and  _585
REMARK  241  A    between atoms: _587  and  _589
REMARK  242  A    between atoms: _589  and  _590
REMARK  243  A    between atoms: _589  and  _592
REMARK  244  A    between atoms: _592  and  _593
REMARK  245  A    between atoms: _593  and  _594
REMARK  246  A    between atoms: _596  and  _598
REMARK  247  A    between atoms: _598  and  _599
REMARK  248  A    between atoms: _598  and  _601
REMARK  249  A    between atoms: _601  and  _602
REMARK  250  A    between atoms: _602  and  _603
REMARK  251  A    between atoms: _603  and  _604
REMARK  252  A    between atoms: _604  and  _605
REMARK  253  A    between atoms: _609  and  _611
REMARK  254  A    between atoms: _611  and  _612
REMARK  255  A    between atoms: _611  and  _614
REMARK  256  A    between atoms: _614  and  _615
REMARK                            x       y       z     vdW  Elec       q    Type
REMARK                         _______ _______ _______ _____ _____    ______ ____
ROOT
ATOM      1  O   HOH     1      52.492  15.370  32.630  0.00  0.00    +0.000 OA
ENDROOT
TORSDOF 0
REMARK  Name = ../refined-set-2016/1x8r/1x8r_pocket.pdb
REMARK  256 active torsions:
REMARK  status: ('A' for Active; 'I' for Inactive)
REMARK    1  A    between atoms: _1  and  _3
REMARK    2  A    between atoms: _3  and  _4
REMARK    3  A    between atoms: _3  and  _6
REMARK    4  A    between atoms: _6  and  _7
REMARK    5  A    between atoms: _9  and  _11
REMARK    6  A    between atoms: _11  and  _12
REMARK    7  A    between atoms: _11  and  _14
REMARK    8  A    between atoms: _14  and  _15
REMARK    9  A    between atoms: _15  and  _16
REMARK   10  A    between atoms: _16  and  _17
REMARK   11  A    between atoms: _17  and  _18
REMARK   12  A    between atoms: _22  and  _24
REMARK   13  A    between atoms: _24  and  _25
REMARK   14  A    between atoms: _24  and  _27
REMARK   15  A    between atoms: _27  and  _28
REMARK   16  A    between atoms: _30  and  _32
REMARK   17  A    between atoms: _32  and  _33
REMARK   18  A    between atoms: _32  and  _35
REMARK   19  A    between atoms: _38  and  _40
REMARK   20  A    between atoms: _40  and  _41
REMARK   21  A    between atoms: _40  and  _43
REMARK   22  A    between atoms: _43  and  _44
REMARK   23  A    between atoms: _46  and  _48
REMARK   24  A    between atoms: _48  and  _49
REMARK   25  A    between atoms: _48  and  _51
REMARK   26  A    between atoms: _51  and  _52
REMARK   27  A    between atoms: _57  and  _59
REMARK   28  A    between atoms: _59  and  _60
REMARK   29  A    between atoms: _59  and  _62
REMARK   30  A    between atoms: _62  and  _63
REMARK   31  A    between atoms: _63  and  _64
REMARK   32  A    between atoms: _64  and  _65
REMARK   33  A    between atoms: _74  and  _76
REMARK   34  A    between atoms: _76  and  _77
REMARK   35  A    between atoms: _76  and  _79
REMARK   36  A    between atoms: _79  and  _80
REMARK   37  A    between atoms: _83  and  _85
REMARK   38  A    between atoms: _85  and  _86
REMARK   39  A    between atoms: _85  and  _88
REMARK   40  A    between atoms: _88  and  _89
REMARK   41  A    between atoms: _94  and  _96
REMARK   42  A    between atoms: _96  and  _97
REMARK   43  A    between atoms: _100  and  _102
REMARK   44  A    between atoms: _102  and  _103
REMARK   45  A    between atoms: _105  and  _107
REMARK   46  A    between atoms: _107  and  _108
REMARK   47  A    between atoms: _107  and  _110
REMARK   48  A    between atoms: _110  and  _111
REMARK   49  A    between atoms: _114  and  _116
REMARK   50  A    between atoms: _116  and  _117
REMARK   51  A    between atoms: _120  and  _122
REMARK   52  A    between atoms: _122  and  _123
REMARK   53  A    between atoms: _122  and  _125
REMARK   54  A    between atoms: _125  and  _126
REMARK   55  A    between atoms: _126  and  _127
REMARK   56  A    between atoms: _129  and  _131
REMARK   57  A    between atoms: _131  and  _132
REMARK   58  A    between atoms: _131  and  _134
REMARK   59  A    between atoms: _134  and  _135
REMARK   60  A    between atoms: _135  and  _136
REMARK   61  A    between atoms: _136  and  _137
REMARK   62  A    between atoms: _147  and  _148
REMARK   63  A    between atoms: _153  and  _155
REMARK   64  A    between atoms: _155  and  _156
REMARK   65  A    between atoms: _155  and  _158
REMARK   66  A    between atoms: _158  and  _159
REMARK   67  A    between atoms: _159  and  _160
REMARK   68  A    between atoms: _162  and  _164
REMARK   69  A    between atoms: _164  and  _165
REMARK   70  A    between atoms: _164  and  _167
REMARK   71  A    between atoms: _167  and  _168
REMARK   72  A    between atoms: _168  and  _169
REMARK   73  A    between atoms: _169  and  _170
REMARK   74  A    between atoms: _180  and  _181
REMARK   75  A    between atoms: _186  and  _188
REMARK   76  A    between atoms: _188  and  _189
REMARK   77  A    between atoms: _191  and  _193
REMARK   78  A    between atoms: _193  and  _194
REMARK   79  A    between atoms: _193  and  _196
REMARK   80  A    between atoms: _196  and  _197
REMARK   81  A    between atoms: _199  and  _201
REMARK   82  A    between atoms: _201  and  _202
REMARK   83  A    between atoms: _201  and  _204
REMARK   84  A    between atoms: _207  and  _209
REMARK   85  A    between atoms: _209  and  _210
REMARK   86  A    between atoms: _209  and  _212
REMARK   87  A    between atoms: _212  and  _213
REMARK   88  A    between atoms: _215  and  _217
REMARK   89  A    between atoms: _217  and  _218
REMARK   90  A    between atoms: _217  and  _220
REMARK   91  A    between atoms: _220  and  _221
REMARK   92  A    between atoms: _223  and  _225
REMARK   93  A    between atoms: _225  and  _226
REMARK   94  A    between atoms: _225  and  _228
REMARK   95  A    between atoms: _228  and  _229
REMARK   96  A    between atoms: _229  and  _230
REMARK   97  A    between atoms: _235  and  _237
REMARK   98  A    between atoms: _237  and  _238
REMARK   99  A    between atoms: _237  and  _240
REMARK  100  A    between atoms: _240  and  _241
REMARK  101  A    between atoms: _247  and  _249
REMARK  102  A    between atoms: _249  and  _250
REMARK  103  A    between atoms: _249  and  _252
REMARK  104  A    between atoms: _252  and  _253
REMARK  105  A    between atoms: _256  and  _258
REMARK  106  A    between atoms: _258  and  _259
REMARK  107  A    between atoms: _258  and  _261
REMARK  108  A    between atoms: _261  and  _262
REMARK  109  A    between atoms: _265  and  _267
REMARK  110  A    between atoms: _267  and  _268
REMARK  111  A    between atoms: _271  and  _273
REMARK  112  A    between atoms: _273  and  _274
REMARK  113  A    between atoms: _273  and  _276
REMARK  114  A    between atoms: _276  and  _277
REMARK  115  A    between atoms: _277  and  _278
REMARK  116  A    between atoms: _280  and  _282
REMARK  117  A    between atoms: _282  and  _283
REMARK  118  A    between atoms: _282  and  _285
REMARK  119  A    between atoms: _285  and  _286
REMARK  120  A    between atoms: _289  and  _291
REMARK  121  A    between atoms: _291  and  _292
REMARK  122  A    between atoms: _291  and  _294
REMARK  123  A    between atoms: _297  and  _299
REMARK  124  A    between atoms: _299  and  _300
REMARK  125  A    between atoms: _299  and  _302
REMARK  126  A    between atoms: _302  and  _303
REMARK  127  A    between atoms: _305  and  _307
REMARK  128  A    between atoms: _307  and  _308
REMARK  129  A    between atoms: _307  and  _310
REMARK  130  A    between atoms: _310  and  _311
REMARK  131  A    between atoms: _311  and  _312
REMARK  132  A    between atoms: _312  and  _313
REMARK  133  A    between atoms: _313  and  _314
REMARK  134  A    between atoms: _319  and  _320
REMARK  135  A    between atoms: _325  and  _327
REMARK  136  A    between atoms: _327  and  _328
REMARK  137  A    between atoms: _327  and  _330
REMARK  138  A    between atoms: _330  and  _331
REMARK  139  A    between atoms: _336  and  _337
REMARK  140  A    between atoms: _339  and  _341
REMARK  141  A    between atoms: _341  and  _342
REMARK  142  A    between atoms: _341  and  _344
REMARK  143  A    between atoms: _344  and  _345
REMARK  144  A    between atoms: _348  and  _350
REMARK  145  A    between atoms: _350  and  _351
REMARK  146  A    between atoms: _350  and  _353
REMARK  147  A    between atoms: _353  and  _354
REMARK  148  A    between atoms: _357  and  _359
REMARK  149  A    between atoms: _359  and  _360
REMARK  150  A    between atoms: _359  and  _362
REMARK  151  A    between atoms: _362  and  _363
REMARK  152  A    between atoms: _366  and  _368
REMARK  153  A    between atoms: _368  and  _369
REMARK  154  A    between atoms: _368  and  _371
REMARK  155  A    between atoms: _371  and  _372
REMARK  156  A    between atoms: _375  and  _377
REMARK  157  A    between atoms: _377  and  _378
REMARK  158  A    between atoms: _377  and  _380
REMARK  159  A    between atoms: _380  and  _381
REMARK  160  A    between atoms: _383  and  _385
REMARK  161  A    between atoms: _385  and  _386
REMARK  162  A    between atoms: _385  and  _388
REMARK  163  A    between atoms: _388  and  _389
REMARK  164  A    between atoms: _394  and  _395
REMARK  165  A    between atoms: _397  and  _399
REMARK  166  A    between atoms: _399  and  _400
REMARK  167  A    between atoms: _399  and  _402
REMARK  168  A    between atoms: _402  and  _403
REMARK  169  A    between atoms: _406  and  _408
REMARK  170  A    between atoms: _408  and  _409
REMARK  171  A    between atoms: _408  and  _411
REMARK  172  A    between atoms: _411  and  _412
REMARK  173  A    between atoms: _417  and  _419
REMARK  174  A    between atoms: _419  and  _420
REMARK  175  A    between atoms: _419  and  _422
REMARK  176  A    between atoms: _422  and  _423
REMARK  177  A    between atoms: _427  and  _428
REMARK  178  A    between atoms: _433  and  _435
REMARK  179  A    between atoms: _435  and  _436
REMARK  180  A    between atoms: _435  and  _438
REMARK  181  A    between atoms: _438  and  _439
REMARK  182  A    between atoms: _442  and  _444
REMARK  183  A    between atoms: _444  and  _445
REMARK  184  A    between atoms: _448  and  _450
REMARK  185  A    between atoms: _450  and  _451
REMARK  186  A    between atoms: _450  and  _453
REMARK  187  A    between atoms: _453  and  _454
REMARK  188  A    between atoms: _454  and  _455
REMARK  189  A    between atoms: _457  and  _459
REMARK  190  A    between atoms: _459  and  _460
REMARK  191  A    between atoms: _459  and  _462
REMARK  192  A    between atoms: _462  and  _463
REMARK  193  A    between atoms: _468  and  _470
REMARK  194  A    between atoms: _470  and  _471
REMARK  195  A    between atoms: _470  and  _473
REMARK  196  A    between atoms: _473  and  _474
REMARK  197  A    between atoms: _484  and  _486
REMARK  198  A    between atoms: _486  and  _487
REMARK  199  A    between atoms: _486  and  _489
REMARK  200  A    between atoms: _492  and  _494
REMARK  201  A    between atoms: _494  and  _495
REMARK  202  A    between atoms: _494  and  _497
REMARK  203  A    between atoms: _497  and  _498
REMARK  204  A    between atoms: _498  and  _499
REMARK  205  A    between atoms: _499  and  _500
REMARK  206  A    between atoms: _500  and  _501
REMARK  207  A    between atoms: _505  and  _507
REMARK  208  A    between atoms: _507  and  _508
REMARK  209  A    between atoms: _507  and  _510
REMARK  210  A    between atoms: _510  and  _511
REMARK  211  A    between atoms: _511  and  _512
REMARK  212  A    between atoms: _515  and  _517
REMARK  213  A    between atoms: _517  and  _518
REMARK  214  A    between atoms: _517  and  _520
REMARK  215  A    between atoms: _520  and  _521
REMARK  216  A    between atoms: _524  and  _526
REMARK  217  A    between atoms: _526  and  _527
REMARK  218  A    between atoms: _526  and  _529
REMARK  219  A    between atoms: _529  and  _530
REMARK  220  A    between atoms: _530  and  _531
REMARK  221  A    between atoms: _531  and  _532
REMARK  222  A    between atoms: _541  and  _543
REMARK  223  A    between atoms: _543  and  _544
REMARK  224  A    between atoms: _543  and  _546
REMARK  225  A    between atoms: _546  and  _547
REMARK  226  A    between atoms: _550  and  _552
REMARK  227  A    between atoms: _552  and  _553
REMARK  228  A    between atoms: _552  and  _555
REMARK  229  A    between atoms: _555  and  _556
REMARK  230  A    between atoms: _561  and  _563
REMARK  231  A    between atoms: _563  and  _564
REMARK  232  A    between atoms: _563  and  _566
REMARK  233  A    between atoms: _566  and  _567
REMARK  234  A    between atoms: _567  and  _568
REMARK  235  A    between atoms: _568  and  _569
REMARK  236  A    between atoms: _578  and  _580
REMARK  237  A    between atoms: _580  and  _581
REMARK  238  A    between atoms: _580  and  _583
REMARK  239  A    between atoms: _583  and  _584
REMARK  240  A    between atoms: _584  and  _585
REMARK  241  A    between atoms: _587  and  _589
REMARK  242  A    between atoms: _589  and  _590
REMARK  243  A    between atoms: _589  and  _592
REMARK  244  A    between atoms: _592  and  _593
REMARK  245  A    between atoms: _593  and  _594
REMARK  246  A    between atoms: _596  and  _598
REMARK  247  A    between atoms: _598  and  _599
REMARK  248  A    between atoms: _598  and  _601
REMARK  249  A    between atoms: _601  and  _602
REMARK  250  A    between atoms: _602  and  _603
REMARK  251  A    between atoms: _603  and  _604
REMARK  252  A    between atoms: _604  and  _605
REMARK  253  A    between atoms: _609  and  _611
REMARK  254  A    between atoms: _611  and  _612
REMARK  255  A    between atoms: _611  and  _614
REMARK  256  A    between atoms: _614  and  _615
REMARK                            x       y       z     vdW  Elec       q    Type
REMARK                         _______ _______ _______ _____ _____    ______ ____
ROOT
ATOM      1  O   HOH     1      59.491  14.109  31.021  0.00  0.00    +0.000 OA
ENDROOT
TORSDOF 0
REMARK  Name = ../refined-set-2016/1x8r/1x8r_pocket.pdb
REMARK  256 active torsions:
REMARK  status: ('A' for Active; 'I' for Inactive)
REMARK    1  A    between atoms: _1  and  _3
REMARK    2  A    between atoms: _3  and  _4
REMARK    3  A    between atoms: _3  and  _6
REMARK    4  A    between atoms: _6  and  _7
REMARK    5  A    between atoms: _9  and  _11
REMARK    6  A    between atoms: _11  and  _12
REMARK    7  A    between atoms: _11  and  _14
REMARK    8  A    between atoms: _14  and  _15
REMARK    9  A    between atoms: _15  and  _16
REMARK   10  A    between atoms: _16  and  _17
REMARK   11  A    between atoms: _17  and  _18
REMARK   12  A    between atoms: _22  and  _24
REMARK   13  A    between atoms: _24  and  _25
REMARK   14  A    between atoms: _24  and  _27
REMARK   15  A    between atoms: _27  and  _28
REMARK   16  A    between atoms: _30  and  _32
REMARK   17  A    between atoms: _32  and  _33
REMARK   18  A    between atoms: _32  and  _35
REMARK   19  A    between atoms: _38  and  _40
REMARK   20  A    between atoms: _40  and  _41
REMARK   21  A    between atoms: _40  and  _43
REMARK   22  A    between atoms: _43  and  _44
REMARK   23  A    between atoms: _46  and  _48
REMARK   24  A    between atoms: _48  and  _49
REMARK   25  A    between atoms: _48  and  _51
REMARK   26  A    between atoms: _51  and  _52
REMARK   27  A    between atoms: _57  and  _59
REMARK   28  A    between atoms: _59  and  _60
REMARK   29  A    between atoms: _59  and  _62
REMARK   30  A    between atoms: _62  and  _63
REMARK   31  A    between atoms: _63  and  _64
REMARK   32  A    between atoms: _64  and  _65
REMARK   33  A    between atoms: _74  and  _76
REMARK   34  A    between atoms: _76  and  _77
REMARK   35  A    between atoms: _76  and  _79
REMARK   36  A    between atoms: _79  and  _80
REMARK   37  A    between atoms: _83  and  _85
REMARK   38  A    between atoms: _85  and  _86
REMARK   39  A    between atoms: _85  and  _88
REMARK   40  A    between atoms: _88  and  _89
REMARK   41  A    between atoms: _94  and  _96
REMARK   42  A    between atoms: _96  and  _97
REMARK   43  A    between atoms: _100  and  _102
REMARK   44  A    between atoms: _102  and  _103
REMARK   45  A    between atoms: _105  and  _107
REMARK   46  A    between atoms: _107  and  _108
REMARK   47  A    between atoms: _107  and  _110
REMARK   48  A    between atoms: _110  and  _111
REMARK   49  A    between atoms: _114  and  _116
REMARK   50  A    between atoms: _116  and  _117
REMARK   51  A    between atoms: _120  and  _122
REMARK   52  A    between atoms: _122  and  _123
REMARK   53  A    between atoms: _122  and  _125
REMARK   54  A    between atoms: _125  and  _126
REMARK   55  A    between atoms: _126  and  _127
REMARK   56  A    between atoms: _129  and  _131
REMARK   57  A    between atoms: _131  and  _132
REMARK   58  A    between atoms: _131  and  _134
REMARK   59  A    between atoms: _134  and  _135
REMARK   60  A    between atoms: _135  and  _136
REMARK   61  A    between atoms: _136  and  _137
REMARK   62  A    between atoms: _147  and  _148
REMARK   63  A    between atoms: _153  and  _155
REMARK   64  A    between atoms: _155  and  _156
REMARK   65  A    between atoms: _155  and  _158
REMARK   66  A    between atoms: _158  and  _159
REMARK   67  A    between atoms: _159  and  _160
REMARK   68  A    between atoms: _162  and  _164
REMARK   69  A    between atoms: _164  and  _165
REMARK   70  A    between atoms: _164  and  _167
REMARK   71  A    between atoms: _167  and  _168
REMARK   72  A    between atoms: _168  and  _169
REMARK   73  A    between atoms: _169  and  _170
REMARK   74  A    between atoms: _180  and  _181
REMARK   75  A    between atoms: _186  and  _188
REMARK   76  A    between atoms: _188  and  _189
REMARK   77  A    between atoms: _191  and  _193
REMARK   78  A    between atoms: _193  and  _194
REMARK   79  A    between atoms: _193  and  _196
REMARK   80  A    between atoms: _196  and  _197
REMARK   81  A    between atoms: _199  and  _201
REMARK   82  A    between atoms: _201  and  _202
REMARK   83  A    between atoms: _201  and  _204
REMARK   84  A    between atoms: _207  and  _209
REMARK   85  A    between atoms: _209  and  _210
REMARK   86  A    between atoms: _209  and  _212
REMARK   87  A    between atoms: _212  and  _213
REMARK   88  A    between atoms: _215  and  _217
REMARK   89  A    between atoms: _217  and  _218
REMARK   90  A    between atoms: _217  and  _220
REMARK   91  A    between atoms: _220  and  _221
REMARK   92  A    between atoms: _223  and  _225
REMARK   93  A    between atoms: _225  and  _226
REMARK   94  A    between atoms: _225  and  _228
REMARK   95  A    between atoms: _228  and  _229
REMARK   96  A    between atoms: _229  and  _230
REMARK   97  A    between atoms: _235  and  _237
REMARK   98  A    between atoms: _237  and  _238
REMARK   99  A    between atoms: _237  and  _240
REMARK  100  A    between atoms: _240  and  _241
REMARK  101  A    between atoms: _247  and  _249
REMARK  102  A    between atoms: _249  and  _250
REMARK  103  A    between atoms: _249  and  _252
REMARK  104  A    between atoms: _252  and  _253
REMARK  105  A    between atoms: _256  and  _258
REMARK  106  A    between atoms: _258  and  _259
REMARK  107  A    between atoms: _258  and  _261
REMARK  108  A    between atoms: _261  and  _262
REMARK  109  A    between atoms: _265  and  _267
REMARK  110  A    between atoms: _267  and  _268
REMARK  111  A    between atoms: _271  and  _273
REMARK  112  A    between atoms: _273  and  _274
REMARK  113  A    between atoms: _273  and  _276
REMARK  114  A    between atoms: _276  and  _277
REMARK  115  A    between atoms: _277  and  _278
REMARK  116  A    between atoms: _280  and  _282
REMARK  117  A    between atoms: _282  and  _283
REMARK  118  A    between atoms: _282  and  _285
REMARK  119  A    between atoms: _285  and  _286
REMARK  120  A    between atoms: _289  and  _291
REMARK  121  A    between atoms: _291  and  _292
REMARK  122  A    between atoms: _291  and  _294
REMARK  123  A    between atoms: _297  and  _299
REMARK  124  A    between atoms: _299  and  _300
REMARK  125  A    between atoms: _299  and  _302
REMARK  126  A    between atoms: _302  and  _303
REMARK  127  A    between atoms: _305  and  _307
REMARK  128  A    between atoms: _307  and  _308
REMARK  129  A    between atoms: _307  and  _310
REMARK  130  A    between atoms: _310  and  _311
REMARK  131  A    between atoms: _311  and  _312
REMARK  132  A    between atoms: _312  and  _313
REMARK  133  A    between atoms: _313  and  _314
REMARK  134  A    between atoms: _319  and  _320
REMARK  135  A    between atoms: _325  and  _327
REMARK  136  A    between atoms: _327  and  _328
REMARK  137  A    between atoms: _327  and  _330
REMARK  138  A    between atoms: _330  and  _331
REMARK  139  A    between atoms: _336  and  _337
REMARK  140  A    between atoms: _339  and  _341
REMARK  141  A    between atoms: _341  and  _342
REMARK  142  A    between atoms: _341  and  _344
REMARK  143  A    between atoms: _344  and  _345
REMARK  144  A    between atoms: _348  and  _350
REMARK  145  A    between atoms: _350  and  _351
REMARK  146  A    between atoms: _350  and  _353
REMARK  147  A    between atoms: _353  and  _354
REMARK  148  A    between atoms: _357  and  _359
REMARK  149  A    between atoms: _359  and  _360
REMARK  150  A    between atoms: _359  and  _362
REMARK  151  A    between atoms: _362  and  _363
REMARK  152  A    between atoms: _366  and  _368
REMARK  153  A    between atoms: _368  and  _369
REMARK  154  A    between atoms: _368  and  _371
REMARK  155  A    between atoms: _371  and  _372
REMARK  156  A    between atoms: _375  and  _377
REMARK  157  A    between atoms: _377  and  _378
REMARK  158  A    between atoms: _377  and  _380
REMARK  159  A    between atoms: _380  and  _381
REMARK  160  A    between atoms: _383  and  _385
REMARK  161  A    between atoms: _385  and  _386
REMARK  162  A    between atoms: _385  and  _388
REMARK  163  A    between atoms: _388  and  _389
REMARK  164  A    between atoms: _394  and  _395
REMARK  165  A    between atoms: _397  and  _399
REMARK  166  A    between atoms: _399  and  _400
REMARK  167  A    between atoms: _399  and  _402
REMARK  168  A    between atoms: _402  and  _403
REMARK  169  A    between atoms: _406  and  _408
REMARK  170  A    between atoms: _408  and  _409
REMARK  171  A    between atoms: _408  and  _411
REMARK  172  A    between atoms: _411  and  _412
REMARK  173  A    between atoms: _417  and  _419
REMARK  174  A    between atoms: _419  and  _420
REMARK  175  A    between atoms: _419  and  _422
REMARK  176  A    between atoms: _422  and  _423
REMARK  177  A    between atoms: _427  and  _428
REMARK  178  A    between atoms: _433  and  _435
REMARK  179  A    between atoms: _435  and  _436
REMARK  180  A    between atoms: _435  and  _438
REMARK  181  A    between atoms: _438  and  _439
REMARK  182  A    between atoms: _442  and  _444
REMARK  183  A    between atoms: _444  and  _445
REMARK  184  A    between atoms: _448  and  _450
REMARK  185  A    between atoms: _450  and  _451
REMARK  186  A    between atoms: _450  and  _453
REMARK  187  A    between atoms: _453  and  _454
REMARK  188  A    between atoms: _454  and  _455
REMARK  189  A    between atoms: _457  and  _459
REMARK  190  A    between atoms: _459  and  _460
REMARK  191  A    between atoms: _459  and  _462
REMARK  192  A    between atoms: _462  and  _463
REMARK  193  A    between atoms: _468  and  _470
REMARK  194  A    between atoms: _470  and  _471
REMARK  195  A    between atoms: _470  and  _473
REMARK  196  A    between atoms: _473  and  _474
REMARK  197  A    between atoms: _484  and  _486
REMARK  198  A    between atoms: _486  and  _487
REMARK  199  A    between atoms: _486  and  _489
REMARK  200  A    between atoms: _492  and  _494
REMARK  201  A    between atoms: _494  and  _495
REMARK  202  A    between atoms: _494  and  _497
REMARK  203  A    between atoms: _497  and  _498
REMARK  204  A    between atoms: _498  and  _499
REMARK  205  A    between atoms: _499  and  _500
REMARK  206  A    between atoms: _500  and  _501
REMARK  207  A    between atoms: _505  and  _507
REMARK  208  A    between atoms: _507  and  _508
REMARK  209  A    between atoms: _507  and  _510
REMARK  210  A    between atoms: _510  and  _511
REMARK  211  A    between atoms: _511  and  _512
REMARK  212  A    between atoms: _515  and  _517
REMARK  213  A    between atoms: _517  and  _518
REMARK  214  A    between atoms: _517  and  _520
REMARK  215  A    between atoms: _520  and  _521
REMARK  216  A    between atoms: _524  and  _526
REMARK  217  A    between atoms: _526  and  _527
REMARK  218  A    between atoms: _526  and  _529
REMARK  219  A    between atoms: _529  and  _530
REMARK  220  A    between atoms: _530  and  _531
REMARK  221  A    between atoms: _531  and  _532
REMARK  222  A    between atoms: _541  and  _543
REMARK  223  A    between atoms: _543  and  _544
REMARK  224  A    between atoms: _543  and  _546
REMARK  225  A    between atoms: _546  and  _547
REMARK  226  A    between atoms: _550  and  _552
REMARK  227  A    between atoms: _552  and  _553
REMARK  228  A    between atoms: _552  and  _555
REMARK  229  A    between atoms: _555  and  _556
REMARK  230  A    between atoms: _561  and  _563
REMARK  231  A    between atoms: _563  and  _564
REMARK  232  A    between atoms: _563  and  _566
REMARK  233  A    between atoms: _566  and  _567
REMARK  234  A    between atoms: _567  and  _568
REMARK  235  A    between atoms: _568  and  _569
REMARK  236  A    between atoms: _578  and  _580
REMARK  237  A    between atoms: _580  and  _581
REMARK  238  A    between atoms: _580  and  _583
REMARK  239  A    between atoms: _583  and  _584
REMARK  240  A    between atoms: _584  and  _585
REMARK  241  A    between atoms: _587  and  _589
REMARK  242  A    between atoms: _589  and  _590
REMARK  243  A    between atoms: _589  and  _592
REMARK  244  A    between atoms: _592  and  _593
REMARK  245  A    between atoms: _593  and  _594
REMARK  246  A    between atoms: _596  and  _598
REMARK  247  A    between atoms: _598  and  _599
REMARK  248  A    between atoms: _598  and  _601
REMARK  249  A    between atoms: _601  and  _602
REMARK  250  A    between atoms: _602  and  _603
REMARK  251  A    between atoms: _603  and  _604
REMARK  252  A    between atoms: _604  and  _605
REMARK  253  A    between atoms: _609  and  _611
REMARK  254  A    between atoms: _611  and  _612
REMARK  255  A    between atoms: _611  and  _614
REMARK  256  A    between atoms: _614  and  _615
REMARK                            x       y       z     vdW  Elec       q    Type
REMARK                         _______ _______ _______ _____ _____    ______ ____
ROOT
ATOM      1  O   HOH     1      68.592  10.062  24.816  0.00  0.00    +0.000 OA
ENDROOT
TORSDOF 0
REMARK  Name = ../refined-set-2016/1x8r/1x8r_pocket.pdb
REMARK  256 active torsions:
REMARK  status: ('A' for Active; 'I' for Inactive)
REMARK    1  A    between atoms: _1  and  _3
REMARK    2  A    between atoms: _3  and  _4
REMARK    3  A    between atoms: _3  and  _6
REMARK    4  A    between atoms: _6  and  _7
REMARK    5  A    between atoms: _9  and  _11
REMARK    6  A    between atoms: _11  and  _12
REMARK    7  A    between atoms: _11  and  _14
REMARK    8  A    between atoms: _14  and  _15
REMARK    9  A    between atoms: _15  and  _16
REMARK   10  A    between atoms: _16  and  _17
REMARK   11  A    between atoms: _17  and  _18
REMARK   12  A    between atoms: _22  and  _24
REMARK   13  A    between atoms: _24  and  _25
REMARK   14  A    between atoms: _24  and  _27
REMARK   15  A    between atoms: _27  and  _28
REMARK   16  A    between atoms: _30  and  _32
REMARK   17  A    between atoms: _32  and  _33
REMARK   18  A    between atoms: _32  and  _35
REMARK   19  A    between atoms: _38  and  _40
REMARK   20  A    between atoms: _40  and  _41
REMARK   21  A    between atoms: _40  and  _43
REMARK   22  A    between atoms: _43  and  _44
REMARK   23  A    between atoms: _46  and  _48
REMARK   24  A    between atoms: _48  and  _49
REMARK   25  A    between atoms: _48  and  _51
REMARK   26  A    between atoms: _51  and  _52
REMARK   27  A    between atoms: _57  and  _59
REMARK   28  A    between atoms: _59  and  _60
REMARK   29  A    between atoms: _59  and  _62
REMARK   30  A    between atoms: _62  and  _63
REMARK   31  A    between atoms: _63  and  _64
REMARK   32  A    between atoms: _64  and  _65
REMARK   33  A    between atoms: _74  and  _76
REMARK   34  A    between atoms: _76  and  _77
REMARK   35  A    between atoms: _76  and  _79
REMARK   36  A    between atoms: _79  and  _80
REMARK   37  A    between atoms: _83  and  _85
REMARK   38  A    between atoms: _85  and  _86
REMARK   39  A    between atoms: _85  and  _88
REMARK   40  A    between atoms: _88  and  _89
REMARK   41  A    between atoms: _94  and  _96
REMARK   42  A    between atoms: _96  and  _97
REMARK   43  A    between atoms: _100  and  _102
REMARK   44  A    between atoms: _102  and  _103
REMARK   45  A    between atoms: _105  and  _107
REMARK   46  A    between atoms: _107  and  _108
REMARK   47  A    between atoms: _107  and  _110
REMARK   48  A    between atoms: _110  and  _111
REMARK   49  A    between atoms: _114  and  _116
REMARK   50  A    between atoms: _116  and  _117
REMARK   51  A    between atoms: _120  and  _122
REMARK   52  A    between atoms: _122  and  _123
REMARK   53  A    between atoms: _122  and  _125
REMARK   54  A    between atoms: _125  and  _126
REMARK   55  A    between atoms: _126  and  _127
REMARK   56  A    between atoms: _129  and  _131
REMARK   57  A    between atoms: _131  and  _132
REMARK   58  A    between atoms: _131  and  _134
REMARK   59  A    between atoms: _134  and  _135
REMARK   60  A    between atoms: _135  and  _136
REMARK   61  A    between atoms: _136  and  _137
REMARK   62  A    between atoms: _147  and  _148
REMARK   63  A    between atoms: _153  and  _155
REMARK   64  A    between atoms: _155  and  _156
REMARK   65  A    between atoms: _155  and  _158
REMARK   66  A    between atoms: _158  and  _159
REMARK   67  A    between atoms: _159  and  _160
REMARK   68  A    between atoms: _162  and  _164
REMARK   69  A    between atoms: _164  and  _165
REMARK   70  A    between atoms: _164  and  _167
REMARK   71  A    between atoms: _167  and  _168
REMARK   72  A    between atoms: _168  and  _169
REMARK   73  A    between atoms: _169  and  _170
REMARK   74  A    between atoms: _180  and  _181
REMARK   75  A    between atoms: _186  and  _188
REMARK   76  A    between atoms: _188  and  _189
REMARK   77  A    between atoms: _191  and  _193
REMARK   78  A    between atoms: _193  and  _194
REMARK   79  A    between atoms: _193  and  _196
REMARK   80  A    between atoms: _196  and  _197
REMARK   81  A    between atoms: _199  and  _201
REMARK   82  A    between atoms: _201  and  _202
REMARK   83  A    between atoms: _201  and  _204
REMARK   84  A    between atoms: _207  and  _209
REMARK   85  A    between atoms: _209  and  _210
REMARK   86  A    between atoms: _209  and  _212
REMARK   87  A    between atoms: _212  and  _213
REMARK   88  A    between atoms: _215  and  _217
REMARK   89  A    between atoms: _217  and  _218
REMARK   90  A    between atoms: _217  and  _220
REMARK   91  A    between atoms: _220  and  _221
REMARK   92  A    between atoms: _223  and  _225
REMARK   93  A    between atoms: _225  and  _226
REMARK   94  A    between atoms: _225  and  _228
REMARK   95  A    between atoms: _228  and  _229
REMARK   96  A    between atoms: _229  and  _230
REMARK   97  A    between atoms: _235  and  _237
REMARK   98  A    between atoms: _237  and  _238
REMARK   99  A    between atoms: _237  and  _240
REMARK  100  A    between atoms: _240  and  _241
REMARK  101  A    between atoms: _247  and  _249
REMARK  102  A    between atoms: _249  and  _250
REMARK  103  A    between atoms: _249  and  _252
REMARK  104  A    between atoms: _252  and  _253
REMARK  105  A    between atoms: _256  and  _258
REMARK  106  A    between atoms: _258  and  _259
REMARK  107  A    between atoms: _258  and  _261
REMARK  108  A    between atoms: _261  and  _262
REMARK  109  A    between atoms: _265  and  _267
REMARK  110  A    between atoms: _267  and  _268
REMARK  111  A    between atoms: _271  and  _273
REMARK  112  A    between atoms: _273  and  _274
REMARK  113  A    between atoms: _273  and  _276
REMARK  114  A    between atoms: _276  and  _277
REMARK  115  A    between atoms: _277  and  _278
REMARK  116  A    between atoms: _280  and  _282
REMARK  117  A    between atoms: _282  and  _283
REMARK  118  A    between atoms: _282  and  _285
REMARK  119  A    between atoms: _285  and  _286
REMARK  120  A    between atoms: _289  and  _291
REMARK  121  A    between atoms: _291  and  _292
REMARK  122  A    between atoms: _291  and  _294
REMARK  123  A    between atoms: _297  and  _299
REMARK  124  A    between atoms: _299  and  _300
REMARK  125  A    between atoms: _299  and  _302
REMARK  126  A    between atoms: _302  and  _303
REMARK  127  A    between atoms: _305  and  _307
REMARK  128  A    between atoms: _307  and  _308
REMARK  129  A    between atoms: _307  and  _310
REMARK  130  A    between atoms: _310  and  _311
REMARK  131  A    between atoms: _311  and  _312
REMARK  132  A    between atoms: _312  and  _313
REMARK  133  A    between atoms: _313  and  _314
REMARK  134  A    between atoms: _319  and  _320
REMARK  135  A    between atoms: _325  and  _327
REMARK  136  A    between atoms: _327  and  _328
REMARK  137  A    between atoms: _327  and  _330
REMARK  138  A    between atoms: _330  and  _331
REMARK  139  A    between atoms: _336  and  _337
REMARK  140  A    between atoms: _339  and  _341
REMARK  141  A    between atoms: _341  and  _342
REMARK  142  A    between atoms: _341  and  _344
REMARK  143  A    between atoms: _344  and  _345
REMARK  144  A    between atoms: _348  and  _350
REMARK  145  A    between atoms: _350  and  _351
REMARK  146  A    between atoms: _350  and  _353
REMARK  147  A    between atoms: _353  and  _354
REMARK  148  A    between atoms: _357  and  _359
REMARK  149  A    between atoms: _359  and  _360
REMARK  150  A    between atoms: _359  and  _362
REMARK  151  A    between atoms: _362  and  _363
REMARK  152  A    between atoms: _366  and  _368
REMARK  153  A    between atoms: _368  and  _369
REMARK  154  A    between atoms: _368  and  _371
REMARK  155  A    between atoms: _371  and  _372
REMARK  156  A    between atoms: _375  and  _377
REMARK  157  A    between atoms: _377  and  _378
REMARK  158  A    between atoms: _377  and  _380
REMARK  159  A    between atoms: _380  and  _381
REMARK  160  A    between atoms: _383  and  _385
REMARK  161  A    between atoms: _385  and  _386
REMARK  162  A    between atoms: _385  and  _388
REMARK  163  A    between atoms: _388  and  _389
REMARK  164  A    between atoms: _394  and  _395
REMARK  165  A    between atoms: _397  and  _399
REMARK  166  A    between atoms: _399  and  _400
REMARK  167  A    between atoms: _399  and  _402
REMARK  168  A    between atoms: _402  and  _403
REMARK  169  A    between atoms: _406  and  _408
REMARK  170  A    between atoms: _408  and  _409
REMARK  171  A    between atoms: _408  and  _411
REMARK  172  A    between atoms: _411  and  _412
REMARK  173  A    between atoms: _417  and  _419
REMARK  174  A    between atoms: _419  and  _420
REMARK  175  A    between atoms: _419  and  _422
REMARK  176  A    between atoms: _422  and  _423
REMARK  177  A    between atoms: _427  and  _428
REMARK  178  A    between atoms: _433  and  _435
REMARK  179  A    between atoms: _435  and  _436
REMARK  180  A    between atoms: _435  and  _438
REMARK  181  A    between atoms: _438  and  _439
REMARK  182  A    between atoms: _442  and  _444
REMARK  183  A    between atoms: _444  and  _445
REMARK  184  A    between atoms: _448  and  _450
REMARK  185  A    between atoms: _450  and  _451
REMARK  186  A    between atoms: _450  and  _453
REMARK  187  A    between atoms: _453  and  _454
REMARK  188  A    between atoms: _454  and  _455
REMARK  189  A    between atoms: _457  and  _459
REMARK  190  A    between atoms: _459  and  _460
REMARK  191  A    between atoms: _459  and  _462
REMARK  192  A    between atoms: _462  and  _463
REMARK  193  A    between atoms: _468  and  _470
REMARK  194  A    between atoms: _470  and  _471
REMARK  195  A    between atoms: _470  and  _473
REMARK  196  A    between atoms: _473  and  _474
REMARK  197  A    between atoms: _484  and  _486
REMARK  198  A    between atoms: _486  and  _487
REMARK  199  A    between atoms: _486  and  _489
REMARK  200  A    between atoms: _492  and  _494
REMARK  201  A    between atoms: _494  and  _495
REMARK  202  A    between atoms: _494  and  _497
REMARK  203  A    between atoms: _497  and  _498
REMARK  204  A    between atoms: _498  and  _499
REMARK  205  A    between atoms: _499  and  _500
REMARK  206  A    between atoms: _500  and  _501
REMARK  207  A    between atoms: _505  and  _507
REMARK  208  A    between atoms: _507  and  _508
REMARK  209  A    between atoms: _507  and  _510
REMARK  210  A    between atoms: _510  and  _511
REMARK  211  A    between atoms: _511  and  _512
REMARK  212  A    between atoms: _515  and  _517
REMARK  213  A    between atoms: _517  and  _518
REMARK  214  A    between atoms: _517  and  _520
REMARK  215  A    between atoms: _520  and  _521
REMARK  216  A    between atoms: _524  and  _526
REMARK  217  A    between atoms: _526  and  _527
REMARK  218  A    between atoms: _526  and  _529
REMARK  219  A    between atoms: _529  and  _530
REMARK  220  A    between atoms: _530  and  _531
REMARK  221  A    between atoms: _531  and  _532
REMARK  222  A    between atoms: _541  and  _543
REMARK  223  A    between atoms: _543  and  _544
REMARK  224  A    between atoms: _543  and  _546
REMARK  225  A    between atoms: _546  and  _547
REMARK  226  A    between atoms: _550  and  _552
REMARK  227  A    between atoms: _552  and  _553
REMARK  228  A    between atoms: _552  and  _555
REMARK  229  A    between atoms: _555  and  _556
REMARK  230  A    between atoms: _561  and  _563
REMARK  231  A    between atoms: _563  and  _564
REMARK  232  A    between atoms: _563  and  _566
REMARK  233  A    between atoms: _566  and  _567
REMARK  234  A    between atoms: _567  and  _568
REMARK  235  A    between atoms: _568  and  _569
REMARK  236  A    between atoms: _578  and  _580
REMARK  237  A    between atoms: _580  and  _581
REMARK  238  A    between atoms: _580  and  _583
REMARK  239  A    between atoms: _583  and  _584
REMARK  240  A    between atoms: _584  and  _585
REMARK  241  A    between atoms: _587  and  _589
REMARK  242  A    between atoms: _589  and  _590
REMARK  243  A    between atoms: _589  and  _592
REMARK  244  A    between atoms: _592  and  _593
REMARK  245  A    between atoms: _593  and  _594
REMARK  246  A    between atoms: _596  and  _598
REMARK  247  A    between atoms: _598  and  _599
REMARK  248  A    between atoms: _598  and  _601
REMARK  249  A    between atoms: _601  and  _602
REMARK  250  A    between atoms: _602  and  _603
REMARK  251  A    between atoms: _603  and  _604
REMARK  252  A    between atoms: _604  and  _605
REMARK  253  A    between atoms: _609  and  _611
REMARK  254  A    between atoms: _611  and  _612
REMARK  255  A    between atoms: _611  and  _614
REMARK  256  A    between atoms: _614  and  _615
REMARK                            x       y       z     vdW  Elec       q    Type
REMARK                         _______ _______ _______ _____ _____    ______ ____
ROOT
ATOM      1  O   HOH     1      57.584  16.354  33.660  0.00  0.00    +0.000 OA
ENDROOT
TORSDOF 0
REMARK  Name = ../refined-set-2016/1x8r/1x8r_pocket.pdb
REMARK  256 active torsions:
REMARK  status: ('A' for Active; 'I' for Inactive)
REMARK    1  A    between atoms: _1  and  _3
REMARK    2  A    between atoms: _3  and  _4
REMARK    3  A    between atoms: _3  and  _6
REMARK    4  A    between atoms: _6  and  _7
REMARK    5  A    between atoms: _9  and  _11
REMARK    6  A    between atoms: _11  and  _12
REMARK    7  A    between atoms: _11  and  _14
REMARK    8  A    between atoms: _14  and  _15
REMARK    9  A    between atoms: _15  and  _16
REMARK   10  A    between atoms: _16  and  _17
REMARK   11  A    between atoms: _17  and  _18
REMARK   12  A    between atoms: _22  and  _24
REMARK   13  A    between atoms: _24  and  _25
REMARK   14  A    between atoms: _24  and  _27
REMARK   15  A    between atoms: _27  and  _28
REMARK   16  A    between atoms: _30  and  _32
REMARK   17  A    between atoms: _32  and  _33
REMARK   18  A    between atoms: _32  and  _35
REMARK   19  A    between atoms: _38  and  _40
REMARK   20  A    between atoms: _40  and  _41
REMARK   21  A    between atoms: _40  and  _43
REMARK   22  A    between atoms: _43  and  _44
REMARK   23  A    between atoms: _46  and  _48
REMARK   24  A    between atoms: _48  and  _49
REMARK   25  A    between atoms: _48  and  _51
REMARK   26  A    between atoms: _51  and  _52
REMARK   27  A    between atoms: _57  and  _59
REMARK   28  A    between atoms: _59  and  _60
REMARK   29  A    between atoms: _59  and  _62
REMARK   30  A    between atoms: _62  and  _63
REMARK   31  A    between atoms: _63  and  _64
REMARK   32  A    between atoms: _64  and  _65
REMARK   33  A    between atoms: _74  and  _76
REMARK   34  A    between atoms: _76  and  _77
REMARK   35  A    between atoms: _76  and  _79
REMARK   36  A    between atoms: _79  and  _80
REMARK   37  A    between atoms: _83  and  _85
REMARK   38  A    between atoms: _85  and  _86
REMARK   39  A    between atoms: _85  and  _88
REMARK   40  A    between atoms: _88  and  _89
REMARK   41  A    between atoms: _94  and  _96
REMARK   42  A    between atoms: _96  and  _97
REMARK   43  A    between atoms: _100  and  _102
REMARK   44  A    between atoms: _102  and  _103
REMARK   45  A    between atoms: _105  and  _107
REMARK   46  A    between atoms: _107  and  _108
REMARK   47  A    between atoms: _107  and  _110
REMARK   48  A    between atoms: _110  and  _111
REMARK   49  A    between atoms: _114  and  _116
REMARK   50  A    between atoms: _116  and  _117
REMARK   51  A    between atoms: _120  and  _122
REMARK   52  A    between atoms: _122  and  _123
REMARK   53  A    between atoms: _122  and  _125
REMARK   54  A    between atoms: _125  and  _126
REMARK   55  A    between atoms: _126  and  _127
REMARK   56  A    between atoms: _129  and  _131
REMARK   57  A    between atoms: _131  and  _132
REMARK   58  A    between atoms: _131  and  _134
REMARK   59  A    between atoms: _134  and  _135
REMARK   60  A    between atoms: _135  and  _136
REMARK   61  A    between atoms: _136  and  _137
REMARK   62  A    between atoms: _147  and  _148
REMARK   63  A    between atoms: _153  and  _155
REMARK   64  A    between atoms: _155  and  _156
REMARK   65  A    between atoms: _155  and  _158
REMARK   66  A    between atoms: _158  and  _159
REMARK   67  A    between atoms: _159  and  _160
REMARK   68  A    between atoms: _162  and  _164
REMARK   69  A    between atoms: _164  and  _165
REMARK   70  A    between atoms: _164  and  _167
REMARK   71  A    between atoms: _167  and  _168
REMARK   72  A    between atoms: _168  and  _169
REMARK   73  A    between atoms: _169  and  _170
REMARK   74  A    between atoms: _180  and  _181
REMARK   75  A    between atoms: _186  and  _188
REMARK   76  A    between atoms: _188  and  _189
REMARK   77  A    between atoms: _191  and  _193
REMARK   78  A    between atoms: _193  and  _194
REMARK   79  A    between atoms: _193  and  _196
REMARK   80  A    between atoms: _196  and  _197
REMARK   81  A    between atoms: _199  and  _201
REMARK   82  A    between atoms: _201  and  _202
REMARK   83  A    between atoms: _201  and  _204
REMARK   84  A    between atoms: _207  and  _209
REMARK   85  A    between atoms: _209  and  _210
REMARK   86  A    between atoms: _209  and  _212
REMARK   87  A    between atoms: _212  and  _213
REMARK   88  A    between atoms: _215  and  _217
REMARK   89  A    between atoms: _217  and  _218
REMARK   90  A    between atoms: _217  and  _220
REMARK   91  A    between atoms: _220  and  _221
REMARK   92  A    between atoms: _223  and  _225
REMARK   93  A    between atoms: _225  and  _226
REMARK   94  A    between atoms: _225  and  _228
REMARK   95  A    between atoms: _228  and  _229
REMARK   96  A    between atoms: _229  and  _230
REMARK   97  A    between atoms: _235  and  _237
REMARK   98  A    between atoms: _237  and  _238
REMARK   99  A    between atoms: _237  and  _240
REMARK  100  A    between atoms: _240  and  _241
REMARK  101  A    between atoms: _247  and  _249
REMARK  102  A    between atoms: _249  and  _250
REMARK  103  A    between atoms: _249  and  _252
REMARK  104  A    between atoms: _252  and  _253
REMARK  105  A    between atoms: _256  and  _258
REMARK  106  A    between atoms: _258  and  _259
REMARK  107  A    between atoms: _258  and  _261
REMARK  108  A    between atoms: _261  and  _262
REMARK  109  A    between atoms: _265  and  _267
REMARK  110  A    between atoms: _267  and  _268
REMARK  111  A    between atoms: _271  and  _273
REMARK  112  A    between atoms: _273  and  _274
REMARK  113  A    between atoms: _273  and  _276
REMARK  114  A    between atoms: _276  and  _277
REMARK  115  A    between atoms: _277  and  _278
REMARK  116  A    between atoms: _280  and  _282
REMARK  117  A    between atoms: _282  and  _283
REMARK  118  A    between atoms: _282  and  _285
REMARK  119  A    between atoms: _285  and  _286
REMARK  120  A    between atoms: _289  and  _291
REMARK  121  A    between atoms: _291  and  _292
REMARK  122  A    between atoms: _291  and  _294
REMARK  123  A    between atoms: _297  and  _299
REMARK  124  A    between atoms: _299  and  _300
REMARK  125  A    between atoms: _299  and  _302
REMARK  126  A    between atoms: _302  and  _303
REMARK  127  A    between atoms: _305  and  _307
REMARK  128  A    between atoms: _307  and  _308
REMARK  129  A    between atoms: _307  and  _310
REMARK  130  A    between atoms: _310  and  _311
REMARK  131  A    between atoms: _311  and  _312
REMARK  132  A    between atoms: _312  and  _313
REMARK  133  A    between atoms: _313  and  _314
REMARK  134  A    between atoms: _319  and  _320
REMARK  135  A    between atoms: _325  and  _327
REMARK  136  A    between atoms: _327  and  _328
REMARK  137  A    between atoms: _327  and  _330
REMARK  138  A    between atoms: _330  and  _331
REMARK  139  A    between atoms: _336  and  _337
REMARK  140  A    between atoms: _339  and  _341
REMARK  141  A    between atoms: _341  and  _342
REMARK  142  A    between atoms: _341  and  _344
REMARK  143  A    between atoms: _344  and  _345
REMARK  144  A    between atoms: _348  and  _350
REMARK  145  A    between atoms: _350  and  _351
REMARK  146  A    between atoms: _350  and  _353
REMARK  147  A    between atoms: _353  and  _354
REMARK  148  A    between atoms: _357  and  _359
REMARK  149  A    between atoms: _359  and  _360
REMARK  150  A    between atoms: _359  and  _362
REMARK  151  A    between atoms: _362  and  _363
REMARK  152  A    between atoms: _366  and  _368
REMARK  153  A    between atoms: _368  and  _369
REMARK  154  A    between atoms: _368  and  _371
REMARK  155  A    between atoms: _371  and  _372
REMARK  156  A    between atoms: _375  and  _377
REMARK  157  A    between atoms: _377  and  _378
REMARK  158  A    between atoms: _377  and  _380
REMARK  159  A    between atoms: _380  and  _381
REMARK  160  A    between atoms: _383  and  _385
REMARK  161  A    between atoms: _385  and  _386
REMARK  162  A    between atoms: _385  and  _388
REMARK  163  A    between atoms: _388  and  _389
REMARK  164  A    between atoms: _394  and  _395
REMARK  165  A    between atoms: _397  and  _399
REMARK  166  A    between atoms: _399  and  _400
REMARK  167  A    between atoms: _399  and  _402
REMARK  168  A    between atoms: _402  and  _403
REMARK  169  A    between atoms: _406  and  _408
REMARK  170  A    between atoms: _408  and  _409
REMARK  171  A    between atoms: _408  and  _411
REMARK  172  A    between atoms: _411  and  _412
REMARK  173  A    between atoms: _417  and  _419
REMARK  174  A    between atoms: _419  and  _420
REMARK  175  A    between atoms: _419  and  _422
REMARK  176  A    between atoms: _422  and  _423
REMARK  177  A    between atoms: _427  and  _428
REMARK  178  A    between atoms: _433  and  _435
REMARK  179  A    between atoms: _435  and  _436
REMARK  180  A    between atoms: _435  and  _438
REMARK  181  A    between atoms: _438  and  _439
REMARK  182  A    between atoms: _442  and  _444
REMARK  183  A    between atoms: _444  and  _445
REMARK  184  A    between atoms: _448  and  _450
REMARK  185  A    between atoms: _450  and  _451
REMARK  186  A    between atoms: _450  and  _453
REMARK  187  A    between atoms: _453  and  _454
REMARK  188  A    between atoms: _454  and  _455
REMARK  189  A    between atoms: _457  and  _459
REMARK  190  A    between atoms: _459  and  _460
REMARK  191  A    between atoms: _459  and  _462
REMARK  192  A    between atoms: _462  and  _463
REMARK  193  A    between atoms: _468  and  _470
REMARK  194  A    between atoms: _470  and  _471
REMARK  195  A    between atoms: _470  and  _473
REMARK  196  A    between atoms: _473  and  _474
REMARK  197  A    between atoms: _484  and  _486
REMARK  198  A    between atoms: _486  and  _487
REMARK  199  A    between atoms: _486  and  _489
REMARK  200  A    between atoms: _492  and  _494
REMARK  201  A    between atoms: _494  and  _495
REMARK  202  A    between atoms: _494  and  _497
REMARK  203  A    between atoms: _497  and  _498
REMARK  204  A    between atoms: _498  and  _499
REMARK  205  A    between atoms: _499  and  _500
REMARK  206  A    between atoms: _500  and  _501
REMARK  207  A    between atoms: _505  and  _507
REMARK  208  A    between atoms: _507  and  _508
REMARK  209  A    between atoms: _507  and  _510
REMARK  210  A    between atoms: _510  and  _511
REMARK  211  A    between atoms: _511  and  _512
REMARK  212  A    between atoms: _515  and  _517
REMARK  213  A    between atoms: _517  and  _518
REMARK  214  A    between atoms: _517  and  _520
REMARK  215  A    between atoms: _520  and  _521
REMARK  216  A    between atoms: _524  and  _526
REMARK  217  A    between atoms: _526  and  _527
REMARK  218  A    between atoms: _526  and  _529
REMARK  219  A    between atoms: _529  and  _530
REMARK  220  A    between atoms: _530  and  _531
REMARK  221  A    between atoms: _531  and  _532
REMARK  222  A    between atoms: _541  and  _543
REMARK  223  A    between atoms: _543  and  _544
REMARK  224  A    between atoms: _543  and  _546
REMARK  225  A    between atoms: _546  and  _547
REMARK  226  A    between atoms: _550  and  _552
REMARK  227  A    between atoms: _552  and  _553
REMARK  228  A    between atoms: _552  and  _555
REMARK  229  A    between atoms: _555  and  _556
REMARK  230  A    between atoms: _561  and  _563
REMARK  231  A    between atoms: _563  and  _564
REMARK  232  A    between atoms: _563  and  _566
REMARK  233  A    between atoms: _566  and  _567
REMARK  234  A    between atoms: _567  and  _568
REMARK  235  A    between atoms: _568  and  _569
REMARK  236  A    between atoms: _578  and  _580
REMARK  237  A    between atoms: _580  and  _581
REMARK  238  A    between atoms: _580  and  _583
REMARK  239  A    between atoms: _583  and  _584
REMARK  240  A    between atoms: _584  and  _585
REMARK  241  A    between atoms: _587  and  _589
REMARK  242  A    between atoms: _589  and  _590
REMARK  243  A    between atoms: _589  and  _592
REMARK  244  A    between atoms: _592  and  _593
REMARK  245  A    between atoms: _593  and  _594
REMARK  246  A    between atoms: _596  and  _598
REMARK  247  A    between atoms: _598  and  _599
REMARK  248  A    between atoms: _598  and  _601
REMARK  249  A    between atoms: _601  and  _602
REMARK  250  A    between atoms: _602  and  _603
REMARK  251  A    between atoms: _603  and  _604
REMARK  252  A    between atoms: _604  and  _605
REMARK  253  A    between atoms: _609  and  _611
REMARK  254  A    between atoms: _611  and  _612
REMARK  255  A    between atoms: _611  and  _614
REMARK  256  A    between atoms: _614  and  _615
REMARK                            x       y       z     vdW  Elec       q    Type
REMARK                         _______ _______ _______ _____ _____    ______ ____
ROOT
ATOM      1  O   HOH     1      49.311   1.389  28.601  0.00  0.00    +0.000 OA
ENDROOT
TORSDOF 0
REMARK  Name = ../refined-set-2016/1x8r/1x8r_pocket.pdb
REMARK  256 active torsions:
REMARK  status: ('A' for Active; 'I' for Inactive)
REMARK    1  A    between atoms: _1  and  _3
REMARK    2  A    between atoms: _3  and  _4
REMARK    3  A    between atoms: _3  and  _6
REMARK    4  A    between atoms: _6  and  _7
REMARK    5  A    between atoms: _9  and  _11
REMARK    6  A    between atoms: _11  and  _12
REMARK    7  A    between atoms: _11  and  _14
REMARK    8  A    between atoms: _14  and  _15
REMARK    9  A    between atoms: _15  and  _16
REMARK   10  A    between atoms: _16  and  _17
REMARK   11  A    between atoms: _17  and  _18
REMARK   12  A    between atoms: _22  and  _24
REMARK   13  A    between atoms: _24  and  _25
REMARK   14  A    between atoms: _24  and  _27
REMARK   15  A    between atoms: _27  and  _28
REMARK   16  A    between atoms: _30  and  _32
REMARK   17  A    between atoms: _32  and  _33
REMARK   18  A    between atoms: _32  and  _35
REMARK   19  A    between atoms: _38  and  _40
REMARK   20  A    between atoms: _40  and  _41
REMARK   21  A    between atoms: _40  and  _43
REMARK   22  A    between atoms: _43  and  _44
REMARK   23  A    between atoms: _46  and  _48
REMARK   24  A    between atoms: _48  and  _49
REMARK   25  A    between atoms: _48  and  _51
REMARK   26  A    between atoms: _51  and  _52
REMARK   27  A    between atoms: _57  and  _59
REMARK   28  A    between atoms: _59  and  _60
REMARK   29  A    between atoms: _59  and  _62
REMARK   30  A    between atoms: _62  and  _63
REMARK   31  A    between atoms: _63  and  _64
REMARK   32  A    between atoms: _64  and  _65
REMARK   33  A    between atoms: _74  and  _76
REMARK   34  A    between atoms: _76  and  _77
REMARK   35  A    between atoms: _76  and  _79
REMARK   36  A    between atoms: _79  and  _80
REMARK   37  A    between atoms: _83  and  _85
REMARK   38  A    between atoms: _85  and  _86
REMARK   39  A    between atoms: _85  and  _88
REMARK   40  A    between atoms: _88  and  _89
REMARK   41  A    between atoms: _94  and  _96
REMARK   42  A    between atoms: _96  and  _97
REMARK   43  A    between atoms: _100  and  _102
REMARK   44  A    between atoms: _102  and  _103
REMARK   45  A    between atoms: _105  and  _107
REMARK   46  A    between atoms: _107  and  _108
REMARK   47  A    between atoms: _107  and  _110
REMARK   48  A    between atoms: _110  and  _111
REMARK   49  A    between atoms: _114  and  _116
REMARK   50  A    between atoms: _116  and  _117
REMARK   51  A    between atoms: _120  and  _122
REMARK   52  A    between atoms: _122  and  _123
REMARK   53  A    between atoms: _122  and  _125
REMARK   54  A    between atoms: _125  and  _126
REMARK   55  A    between atoms: _126  and  _127
REMARK   56  A    between atoms: _129  and  _131
REMARK   57  A    between atoms: _131  and  _132
REMARK   58  A    between atoms: _131  and  _134
REMARK   59  A    between atoms: _134  and  _135
REMARK   60  A    between atoms: _135  and  _136
REMARK   61  A    between atoms: _136  and  _137
REMARK   62  A    between atoms: _147  and  _148
REMARK   63  A    between atoms: _153  and  _155
REMARK   64  A    between atoms: _155  and  _156
REMARK   65  A    between atoms: _155  and  _158
REMARK   66  A    between atoms: _158  and  _159
REMARK   67  A    between atoms: _159  and  _160
REMARK   68  A    between atoms: _162  and  _164
REMARK   69  A    between atoms: _164  and  _165
REMARK   70  A    between atoms: _164  and  _167
REMARK   71  A    between atoms: _167  and  _168
REMARK   72  A    between atoms: _168  and  _169
REMARK   73  A    between atoms: _169  and  _170
REMARK   74  A    between atoms: _180  and  _181
REMARK   75  A    between atoms: _186  and  _188
REMARK   76  A    between atoms: _188  and  _189
REMARK   77  A    between atoms: _191  and  _193
REMARK   78  A    between atoms: _193  and  _194
REMARK   79  A    between atoms: _193  and  _196
REMARK   80  A    between atoms: _196  and  _197
REMARK   81  A    between atoms: _199  and  _201
REMARK   82  A    between atoms: _201  and  _202
REMARK   83  A    between atoms: _201  and  _204
REMARK   84  A    between atoms: _207  and  _209
REMARK   85  A    between atoms: _209  and  _210
REMARK   86  A    between atoms: _209  and  _212
REMARK   87  A    between atoms: _212  and  _213
REMARK   88  A    between atoms: _215  and  _217
REMARK   89  A    between atoms: _217  and  _218
REMARK   90  A    between atoms: _217  and  _220
REMARK   91  A    between atoms: _220  and  _221
REMARK   92  A    between atoms: _223  and  _225
REMARK   93  A    between atoms: _225  and  _226
REMARK   94  A    between atoms: _225  and  _228
REMARK   95  A    between atoms: _228  and  _229
REMARK   96  A    between atoms: _229  and  _230
REMARK   97  A    between atoms: _235  and  _237
REMARK   98  A    between atoms: _237  and  _238
REMARK   99  A    between atoms: _237  and  _240
REMARK  100  A    between atoms: _240  and  _241
REMARK  101  A    between atoms: _247  and  _249
REMARK  102  A    between atoms: _249  and  _250
REMARK  103  A    between atoms: _249  and  _252
REMARK  104  A    between atoms: _252  and  _253
REMARK  105  A    between atoms: _256  and  _258
REMARK  106  A    between atoms: _258  and  _259
REMARK  107  A    between atoms: _258  and  _261
REMARK  108  A    between atoms: _261  and  _262
REMARK  109  A    between atoms: _265  and  _267
REMARK  110  A    between atoms: _267  and  _268
REMARK  111  A    between atoms: _271  and  _273
REMARK  112  A    between atoms: _273  and  _274
REMARK  113  A    between atoms: _273  and  _276
REMARK  114  A    between atoms: _276  and  _277
REMARK  115  A    between atoms: _277  and  _278
REMARK  116  A    between atoms: _280  and  _282
REMARK  117  A    between atoms: _282  and  _283
REMARK  118  A    between atoms: _282  and  _285
REMARK  119  A    between atoms: _285  and  _286
REMARK  120  A    between atoms: _289  and  _291
REMARK  121  A    between atoms: _291  and  _292
REMARK  122  A    between atoms: _291  and  _294
REMARK  123  A    between atoms: _297  and  _299
REMARK  124  A    between atoms: _299  and  _300
REMARK  125  A    between atoms: _299  and  _302
REMARK  126  A    between atoms: _302  and  _303
REMARK  127  A    between atoms: _305  and  _307
REMARK  128  A    between atoms: _307  and  _308
REMARK  129  A    between atoms: _307  and  _310
REMARK  130  A    between atoms: _310  and  _311
REMARK  131  A    between atoms: _311  and  _312
REMARK  132  A    between atoms: _312  and  _313
REMARK  133  A    between atoms: _313  and  _314
REMARK  134  A    between atoms: _319  and  _320
REMARK  135  A    between atoms: _325  and  _327
REMARK  136  A    between atoms: _327  and  _328
REMARK  137  A    between atoms: _327  and  _330
REMARK  138  A    between atoms: _330  and  _331
REMARK  139  A    between atoms: _336  and  _337
REMARK  140  A    between atoms: _339  and  _341
REMARK  141  A    between atoms: _341  and  _342
REMARK  142  A    between atoms: _341  and  _344
REMARK  143  A    between atoms: _344  and  _345
REMARK  144  A    between atoms: _348  and  _350
REMARK  145  A    between atoms: _350  and  _351
REMARK  146  A    between atoms: _350  and  _353
REMARK  147  A    between atoms: _353  and  _354
REMARK  148  A    between atoms: _357  and  _359
REMARK  149  A    between atoms: _359  and  _360
REMARK  150  A    between atoms: _359  and  _362
REMARK  151  A    between atoms: _362  and  _363
REMARK  152  A    between atoms: _366  and  _368
REMARK  153  A    between atoms: _368  and  _369
REMARK  154  A    between atoms: _368  and  _371
REMARK  155  A    between atoms: _371  and  _372
REMARK  156  A    between atoms: _375  and  _377
REMARK  157  A    between atoms: _377  and  _378
REMARK  158  A    between atoms: _377  and  _380
REMARK  159  A    between atoms: _380  and  _381
REMARK  160  A    between atoms: _383  and  _385
REMARK  161  A    between atoms: _385  and  _386
REMARK  162  A    between atoms: _385  and  _388
REMARK  163  A    between atoms: _388  and  _389
REMARK  164  A    between atoms: _394  and  _395
REMARK  165  A    between atoms: _397  and  _399
REMARK  166  A    between atoms: _399  and  _400
REMARK  167  A    between atoms: _399  and  _402
REMARK  168  A    between atoms: _402  and  _403
REMARK  169  A    between atoms: _406  and  _408
REMARK  170  A    between atoms: _408  and  _409
REMARK  171  A    between atoms: _408  and  _411
REMARK  172  A    between atoms: _411  and  _412
REMARK  173  A    between atoms: _417  and  _419
REMARK  174  A    between atoms: _419  and  _420
REMARK  175  A    between atoms: _419  and  _422
REMARK  176  A    between atoms: _422  and  _423
REMARK  177  A    between atoms: _427  and  _428
REMARK  178  A    between atoms: _433  and  _435
REMARK  179  A    between atoms: _435  and  _436
REMARK  180  A    between atoms: _435  and  _438
REMARK  181  A    between atoms: _438  and  _439
REMARK  182  A    between atoms: _442  and  _444
REMARK  183  A    between atoms: _444  and  _445
REMARK  184  A    between atoms: _448  and  _450
REMARK  185  A    between atoms: _450  and  _451
REMARK  186  A    between atoms: _450  and  _453
REMARK  187  A    between atoms: _453  and  _454
REMARK  188  A    between atoms: _454  and  _455
REMARK  189  A    between atoms: _457  and  _459
REMARK  190  A    between atoms: _459  and  _460
REMARK  191  A    between atoms: _459  and  _462
REMARK  192  A    between atoms: _462  and  _463
REMARK  193  A    between atoms: _468  and  _470
REMARK  194  A    between atoms: _470  and  _471
REMARK  195  A    between atoms: _470  and  _473
REMARK  196  A    between atoms: _473  and  _474
REMARK  197  A    between atoms: _484  and  _486
REMARK  198  A    between atoms: _486  and  _487
REMARK  199  A    between atoms: _486  and  _489
REMARK  200  A    between atoms: _492  and  _494
REMARK  201  A    between atoms: _494  and  _495
REMARK  202  A    between atoms: _494  and  _497
REMARK  203  A    between atoms: _497  and  _498
REMARK  204  A    between atoms: _498  and  _499
REMARK  205  A    between atoms: _499  and  _500
REMARK  206  A    between atoms: _500  and  _501
REMARK  207  A    between atoms: _505  and  _507
REMARK  208  A    between atoms: _507  and  _508
REMARK  209  A    between atoms: _507  and  _510
REMARK  210  A    between atoms: _510  and  _511
REMARK  211  A    between atoms: _511  and  _512
REMARK  212  A    between atoms: _515  and  _517
REMARK  213  A    between atoms: _517  and  _518
REMARK  214  A    between atoms: _517  and  _520
REMARK  215  A    between atoms: _520  and  _521
REMARK  216  A    between atoms: _524  and  _526
REMARK  217  A    between atoms: _526  and  _527
REMARK  218  A    between atoms: _526  and  _529
REMARK  219  A    between atoms: _529  and  _530
REMARK  220  A    between atoms: _530  and  _531
REMARK  221  A    between atoms: _531  and  _532
REMARK  222  A    between atoms: _541  and  _543
REMARK  223  A    between atoms: _543  and  _544
REMARK  224  A    between atoms: _543  and  _546
REMARK  225  A    between atoms: _546  and  _547
REMARK  226  A    between atoms: _550  and  _552
REMARK  227  A    between atoms: _552  and  _553
REMARK  228  A    between atoms: _552  and  _555
REMARK  229  A    between atoms: _555  and  _556
REMARK  230  A    between atoms: _561  and  _563
REMARK  231  A    between atoms: _563  and  _564
REMARK  232  A    between atoms: _563  and  _566
REMARK  233  A    between atoms: _566  and  _567
REMARK  234  A    between atoms: _567  and  _568
REMARK  235  A    between atoms: _568  and  _569
REMARK  236  A    between atoms: _578  and  _580
REMARK  237  A    between atoms: _580  and  _581
REMARK  238  A    between atoms: _580  and  _583
REMARK  239  A    between atoms: _583  and  _584
REMARK  240  A    between atoms: _584  and  _585
REMARK  241  A    between atoms: _587  and  _589
REMARK  242  A    between atoms: _589  and  _590
REMARK  243  A    between atoms: _589  and  _592
REMARK  244  A    between atoms: _592  and  _593
REMARK  245  A    between atoms: _593  and  _594
REMARK  246  A    between atoms: _596  and  _598
REMARK  247  A    between atoms: _598  and  _599
REMARK  248  A    between atoms: _598  and  _601
REMARK  249  A    between atoms: _601  and  _602
REMARK  250  A    between atoms: _602  and  _603
REMARK  251  A    between atoms: _603  and  _604
REMARK  252  A    between atoms: _604  and  _605
REMARK  253  A    between atoms: _609  and  _611
REMARK  254  A    between atoms: _611  and  _612
REMARK  255  A    between atoms: _611  and  _614
REMARK  256  A    between atoms: _614  and  _615
REMARK                            x       y       z     vdW  Elec       q    Type
REMARK                         _______ _______ _______ _____ _____    ______ ____
ROOT
ATOM      1  O   HOH     1      50.112   6.525  32.007  0.00  0.00    +0.000 OA
ENDROOT
TORSDOF 0
REMARK  Name = ../refined-set-2016/1x8r/1x8r_pocket.pdb
REMARK  256 active torsions:
REMARK  status: ('A' for Active; 'I' for Inactive)
REMARK    1  A    between atoms: _1  and  _3
REMARK    2  A    between atoms: _3  and  _4
REMARK    3  A    between atoms: _3  and  _6
REMARK    4  A    between atoms: _6  and  _7
REMARK    5  A    between atoms: _9  and  _11
REMARK    6  A    between atoms: _11  and  _12
REMARK    7  A    between atoms: _11  and  _14
REMARK    8  A    between atoms: _14  and  _15
REMARK    9  A    between atoms: _15  and  _16
REMARK   10  A    between atoms: _16  and  _17
REMARK   11  A    between atoms: _17  and  _18
REMARK   12  A    between atoms: _22  and  _24
REMARK   13  A    between atoms: _24  and  _25
REMARK   14  A    between atoms: _24  and  _27
REMARK   15  A    between atoms: _27  and  _28
REMARK   16  A    between atoms: _30  and  _32
REMARK   17  A    between atoms: _32  and  _33
REMARK   18  A    between atoms: _32  and  _35
REMARK   19  A    between atoms: _38  and  _40
REMARK   20  A    between atoms: _40  and  _41
REMARK   21  A    between atoms: _40  and  _43
REMARK   22  A    between atoms: _43  and  _44
REMARK   23  A    between atoms: _46  and  _48
REMARK   24  A    between atoms: _48  and  _49
REMARK   25  A    between atoms: _48  and  _51
REMARK   26  A    between atoms: _51  and  _52
REMARK   27  A    between atoms: _57  and  _59
REMARK   28  A    between atoms: _59  and  _60
REMARK   29  A    between atoms: _59  and  _62
REMARK   30  A    between atoms: _62  and  _63
REMARK   31  A    between atoms: _63  and  _64
REMARK   32  A    between atoms: _64  and  _65
REMARK   33  A    between atoms: _74  and  _76
REMARK   34  A    between atoms: _76  and  _77
REMARK   35  A    between atoms: _76  and  _79
REMARK   36  A    between atoms: _79  and  _80
REMARK   37  A    between atoms: _83  and  _85
REMARK   38  A    between atoms: _85  and  _86
REMARK   39  A    between atoms: _85  and  _88
REMARK   40  A    between atoms: _88  and  _89
REMARK   41  A    between atoms: _94  and  _96
REMARK   42  A    between atoms: _96  and  _97
REMARK   43  A    between atoms: _100  and  _102
REMARK   44  A    between atoms: _102  and  _103
REMARK   45  A    between atoms: _105  and  _107
REMARK   46  A    between atoms: _107  and  _108
REMARK   47  A    between atoms: _107  and  _110
REMARK   48  A    between atoms: _110  and  _111
REMARK   49  A    between atoms: _114  and  _116
REMARK   50  A    between atoms: _116  and  _117
REMARK   51  A    between atoms: _120  and  _122
REMARK   52  A    between atoms: _122  and  _123
REMARK   53  A    between atoms: _122  and  _125
REMARK   54  A    between atoms: _125  and  _126
REMARK   55  A    between atoms: _126  and  _127
REMARK   56  A    between atoms: _129  and  _131
REMARK   57  A    between atoms: _131  and  _132
REMARK   58  A    between atoms: _131  and  _134
REMARK   59  A    between atoms: _134  and  _135
REMARK   60  A    between atoms: _135  and  _136
REMARK   61  A    between atoms: _136  and  _137
REMARK   62  A    between atoms: _147  and  _148
REMARK   63  A    between atoms: _153  and  _155
REMARK   64  A    between atoms: _155  and  _156
REMARK   65  A    between atoms: _155  and  _158
REMARK   66  A    between atoms: _158  and  _159
REMARK   67  A    between atoms: _159  and  _160
REMARK   68  A    between atoms: _162  and  _164
REMARK   69  A    between atoms: _164  and  _165
REMARK   70  A    between atoms: _164  and  _167
REMARK   71  A    between atoms: _167  and  _168
REMARK   72  A    between atoms: _168  and  _169
REMARK   73  A    between atoms: _169  and  _170
REMARK   74  A    between atoms: _180  and  _181
REMARK   75  A    between atoms: _186  and  _188
REMARK   76  A    between atoms: _188  and  _189
REMARK   77  A    between atoms: _191  and  _193
REMARK   78  A    between atoms: _193  and  _194
REMARK   79  A    between atoms: _193  and  _196
REMARK   80  A    between atoms: _196  and  _197
REMARK   81  A    between atoms: _199  and  _201
REMARK   82  A    between atoms: _201  and  _202
REMARK   83  A    between atoms: _201  and  _204
REMARK   84  A    between atoms: _207  and  _209
REMARK   85  A    between atoms: _209  and  _210
REMARK   86  A    between atoms: _209  and  _212
REMARK   87  A    between atoms: _212  and  _213
REMARK   88  A    between atoms: _215  and  _217
REMARK   89  A    between atoms: _217  and  _218
REMARK   90  A    between atoms: _217  and  _220
REMARK   91  A    between atoms: _220  and  _221
REMARK   92  A    between atoms: _223  and  _225
REMARK   93  A    between atoms: _225  and  _226
REMARK   94  A    between atoms: _225  and  _228
REMARK   95  A    between atoms: _228  and  _229
REMARK   96  A    between atoms: _229  and  _230
REMARK   97  A    between atoms: _235  and  _237
REMARK   98  A    between atoms: _237  and  _238
REMARK   99  A    between atoms: _237  and  _240
REMARK  100  A    between atoms: _240  and  _241
REMARK  101  A    between atoms: _247  and  _249
REMARK  102  A    between atoms: _249  and  _250
REMARK  103  A    between atoms: _249  and  _252
REMARK  104  A    between atoms: _252  and  _253
REMARK  105  A    between atoms: _256  and  _258
REMARK  106  A    between atoms: _258  and  _259
REMARK  107  A    between atoms: _258  and  _261
REMARK  108  A    between atoms: _261  and  _262
REMARK  109  A    between atoms: _265  and  _267
REMARK  110  A    between atoms: _267  and  _268
REMARK  111  A    between atoms: _271  and  _273
REMARK  112  A    between atoms: _273  and  _274
REMARK  113  A    between atoms: _273  and  _276
REMARK  114  A    between atoms: _276  and  _277
REMARK  115  A    between atoms: _277  and  _278
REMARK  116  A    between atoms: _280  and  _282
REMARK  117  A    between atoms: _282  and  _283
REMARK  118  A    between atoms: _282  and  _285
REMARK  119  A    between atoms: _285  and  _286
REMARK  120  A    between atoms: _289  and  _291
REMARK  121  A    between atoms: _291  and  _292
REMARK  122  A    between atoms: _291  and  _294
REMARK  123  A    between atoms: _297  and  _299
REMARK  124  A    between atoms: _299  and  _300
REMARK  125  A    between atoms: _299  and  _302
REMARK  126  A    between atoms: _302  and  _303
REMARK  127  A    between atoms: _305  and  _307
REMARK  128  A    between atoms: _307  and  _308
REMARK  129  A    between atoms: _307  and  _310
REMARK  130  A    between atoms: _310  and  _311
REMARK  131  A    between atoms: _311  and  _312
REMARK  132  A    between atoms: _312  and  _313
REMARK  133  A    between atoms: _313  and  _314
REMARK  134  A    between atoms: _319  and  _320
REMARK  135  A    between atoms: _325  and  _327
REMARK  136  A    between atoms: _327  and  _328
REMARK  137  A    between atoms: _327  and  _330
REMARK  138  A    between atoms: _330  and  _331
REMARK  139  A    between atoms: _336  and  _337
REMARK  140  A    between atoms: _339  and  _341
REMARK  141  A    between atoms: _341  and  _342
REMARK  142  A    between atoms: _341  and  _344
REMARK  143  A    between atoms: _344  and  _345
REMARK  144  A    between atoms: _348  and  _350
REMARK  145  A    between atoms: _350  and  _351
REMARK  146  A    between atoms: _350  and  _353
REMARK  147  A    between atoms: _353  and  _354
REMARK  148  A    between atoms: _357  and  _359
REMARK  149  A    between atoms: _359  and  _360
REMARK  150  A    between atoms: _359  and  _362
REMARK  151  A    between atoms: _362  and  _363
REMARK  152  A    between atoms: _366  and  _368
REMARK  153  A    between atoms: _368  and  _369
REMARK  154  A    between atoms: _368  and  _371
REMARK  155  A    between atoms: _371  and  _372
REMARK  156  A    between atoms: _375  and  _377
REMARK  157  A    between atoms: _377  and  _378
REMARK  158  A    between atoms: _377  and  _380
REMARK  159  A    between atoms: _380  and  _381
REMARK  160  A    between atoms: _383  and  _385
REMARK  161  A    between atoms: _385  and  _386
REMARK  162  A    between atoms: _385  and  _388
REMARK  163  A    between atoms: _388  and  _389
REMARK  164  A    between atoms: _394  and  _395
REMARK  165  A    between atoms: _397  and  _399
REMARK  166  A    between atoms: _399  and  _400
REMARK  167  A    between atoms: _399  and  _402
REMARK  168  A    between atoms: _402  and  _403
REMARK  169  A    between atoms: _406  and  _408
REMARK  170  A    between atoms: _408  and  _409
REMARK  171  A    between atoms: _408  and  _411
REMARK  172  A    between atoms: _411  and  _412
REMARK  173  A    between atoms: _417  and  _419
REMARK  174  A    between atoms: _419  and  _420
REMARK  175  A    between atoms: _419  and  _422
REMARK  176  A    between atoms: _422  and  _423
REMARK  177  A    between atoms: _427  and  _428
REMARK  178  A    between atoms: _433  and  _435
REMARK  179  A    between atoms: _435  and  _436
REMARK  180  A    between atoms: _435  and  _438
REMARK  181  A    between atoms: _438  and  _439
REMARK  182  A    between atoms: _442  and  _444
REMARK  183  A    between atoms: _444  and  _445
REMARK  184  A    between atoms: _448  and  _450
REMARK  185  A    between atoms: _450  and  _451
REMARK  186  A    between atoms: _450  and  _453
REMARK  187  A    between atoms: _453  and  _454
REMARK  188  A    between atoms: _454  and  _455
REMARK  189  A    between atoms: _457  and  _459
REMARK  190  A    between atoms: _459  and  _460
REMARK  191  A    between atoms: _459  and  _462
REMARK  192  A    between atoms: _462  and  _463
REMARK  193  A    between atoms: _468  and  _470
REMARK  194  A    between atoms: _470  and  _471
REMARK  195  A    between atoms: _470  and  _473
REMARK  196  A    between atoms: _473  and  _474
REMARK  197  A    between atoms: _484  and  _486
REMARK  198  A    between atoms: _486  and  _487
REMARK  199  A    between atoms: _486  and  _489
REMARK  200  A    between atoms: _492  and  _494
REMARK  201  A    between atoms: _494  and  _495
REMARK  202  A    between atoms: _494  and  _497
REMARK  203  A    between atoms: _497  and  _498
REMARK  204  A    between atoms: _498  and  _499
REMARK  205  A    between atoms: _499  and  _500
REMARK  206  A    between atoms: _500  and  _501
REMARK  207  A    between atoms: _505  and  _507
REMARK  208  A    between atoms: _507  and  _508
REMARK  209  A    between atoms: _507  and  _510
REMARK  210  A    between atoms: _510  and  _511
REMARK  211  A    between atoms: _511  and  _512
REMARK  212  A    between atoms: _515  and  _517
REMARK  213  A    between atoms: _517  and  _518
REMARK  214  A    between atoms: _517  and  _520
REMARK  215  A    between atoms: _520  and  _521
REMARK  216  A    between atoms: _524  and  _526
REMARK  217  A    between atoms: _526  and  _527
REMARK  218  A    between atoms: _526  and  _529
REMARK  219  A    between atoms: _529  and  _530
REMARK  220  A    between atoms: _530  and  _531
REMARK  221  A    between atoms: _531  and  _532
REMARK  222  A    between atoms: _541  and  _543
REMARK  223  A    between atoms: _543  and  _544
REMARK  224  A    between atoms: _543  and  _546
REMARK  225  A    between atoms: _546  and  _547
REMARK  226  A    between atoms: _550  and  _552
REMARK  227  A    between atoms: _552  and  _553
REMARK  228  A    between atoms: _552  and  _555
REMARK  229  A    between atoms: _555  and  _556
REMARK  230  A    between atoms: _561  and  _563
REMARK  231  A    between atoms: _563  and  _564
REMARK  232  A    between atoms: _563  and  _566
REMARK  233  A    between atoms: _566  and  _567
REMARK  234  A    between atoms: _567  and  _568
REMARK  235  A    between atoms: _568  and  _569
REMARK  236  A    between atoms: _578  and  _580
REMARK  237  A    between atoms: _580  and  _581
REMARK  238  A    between atoms: _580  and  _583
REMARK  239  A    between atoms: _583  and  _584
REMARK  240  A    between atoms: _584  and  _585
REMARK  241  A    between atoms: _587  and  _589
REMARK  242  A    between atoms: _589  and  _590
REMARK  243  A    between atoms: _589  and  _592
REMARK  244  A    between atoms: _592  and  _593
REMARK  245  A    between atoms: _593  and  _594
REMARK  246  A    between atoms: _596  and  _598
REMARK  247  A    between atoms: _598  and  _599
REMARK  248  A    between atoms: _598  and  _601
REMARK  249  A    between atoms: _601  and  _602
REMARK  250  A    between atoms: _602  and  _603
REMARK  251  A    between atoms: _603  and  _604
REMARK  252  A    between atoms: _604  and  _605
REMARK  253  A    between atoms: _609  and  _611
REMARK  254  A    between atoms: _611  and  _612
REMARK  255  A    between atoms: _611  and  _614
REMARK  256  A    between atoms: _614  and  _615
REMARK                            x       y       z     vdW  Elec       q    Type
REMARK                         _______ _______ _______ _____ _____    ______ ____
ROOT
ATOM      1  O   HOH     1      54.525   4.317  26.555  0.00  0.00    +0.000 OA
ENDROOT
TORSDOF 0
REMARK  Name = ../refined-set-2016/1x8r/1x8r_pocket.pdb
REMARK  256 active torsions:
REMARK  status: ('A' for Active; 'I' for Inactive)
REMARK    1  A    between atoms: _1  and  _3
REMARK    2  A    between atoms: _3  and  _4
REMARK    3  A    between atoms: _3  and  _6
REMARK    4  A    between atoms: _6  and  _7
REMARK    5  A    between atoms: _9  and  _11
REMARK    6  A    between atoms: _11  and  _12
REMARK    7  A    between atoms: _11  and  _14
REMARK    8  A    between atoms: _14  and  _15
REMARK    9  A    between atoms: _15  and  _16
REMARK   10  A    between atoms: _16  and  _17
REMARK   11  A    between atoms: _17  and  _18
REMARK   12  A    between atoms: _22  and  _24
REMARK   13  A    between atoms: _24  and  _25
REMARK   14  A    between atoms: _24  and  _27
REMARK   15  A    between atoms: _27  and  _28
REMARK   16  A    between atoms: _30  and  _32
REMARK   17  A    between atoms: _32  and  _33
REMARK   18  A    between atoms: _32  and  _35
REMARK   19  A    between atoms: _38  and  _40
REMARK   20  A    between atoms: _40  and  _41
REMARK   21  A    between atoms: _40  and  _43
REMARK   22  A    between atoms: _43  and  _44
REMARK   23  A    between atoms: _46  and  _48
REMARK   24  A    between atoms: _48  and  _49
REMARK   25  A    between atoms: _48  and  _51
REMARK   26  A    between atoms: _51  and  _52
REMARK   27  A    between atoms: _57  and  _59
REMARK   28  A    between atoms: _59  and  _60
REMARK   29  A    between atoms: _59  and  _62
REMARK   30  A    between atoms: _62  and  _63
REMARK   31  A    between atoms: _63  and  _64
REMARK   32  A    between atoms: _64  and  _65
REMARK   33  A    between atoms: _74  and  _76
REMARK   34  A    between atoms: _76  and  _77
REMARK   35  A    between atoms: _76  and  _79
REMARK   36  A    between atoms: _79  and  _80
REMARK   37  A    between atoms: _83  and  _85
REMARK   38  A    between atoms: _85  and  _86
REMARK   39  A    between atoms: _85  and  _88
REMARK   40  A    between atoms: _88  and  _89
REMARK   41  A    between atoms: _94  and  _96
REMARK   42  A    between atoms: _96  and  _97
REMARK   43  A    between atoms: _100  and  _102
REMARK   44  A    between atoms: _102  and  _103
REMARK   45  A    between atoms: _105  and  _107
REMARK   46  A    between atoms: _107  and  _108
REMARK   47  A    between atoms: _107  and  _110
REMARK   48  A    between atoms: _110  and  _111
REMARK   49  A    between atoms: _114  and  _116
REMARK   50  A    between atoms: _116  and  _117
REMARK   51  A    between atoms: _120  and  _122
REMARK   52  A    between atoms: _122  and  _123
REMARK   53  A    between atoms: _122  and  _125
REMARK   54  A    between atoms: _125  and  _126
REMARK   55  A    between atoms: _126  and  _127
REMARK   56  A    between atoms: _129  and  _131
REMARK   57  A    between atoms: _131  and  _132
REMARK   58  A    between atoms: _131  and  _134
REMARK   59  A    between atoms: _134  and  _135
REMARK   60  A    between atoms: _135  and  _136
REMARK   61  A    between atoms: _136  and  _137
REMARK   62  A    between atoms: _147  and  _148
REMARK   63  A    between atoms: _153  and  _155
REMARK   64  A    between atoms: _155  and  _156
REMARK   65  A    between atoms: _155  and  _158
REMARK   66  A    between atoms: _158  and  _159
REMARK   67  A    between atoms: _159  and  _160
REMARK   68  A    between atoms: _162  and  _164
REMARK   69  A    between atoms: _164  and  _165
REMARK   70  A    between atoms: _164  and  _167
REMARK   71  A    between atoms: _167  and  _168
REMARK   72  A    between atoms: _168  and  _169
REMARK   73  A    between atoms: _169  and  _170
REMARK   74  A    between atoms: _180  and  _181
REMARK   75  A    between atoms: _186  and  _188
REMARK   76  A    between atoms: _188  and  _189
REMARK   77  A    between atoms: _191  and  _193
REMARK   78  A    between atoms: _193  and  _194
REMARK   79  A    between atoms: _193  and  _196
REMARK   80  A    between atoms: _196  and  _197
REMARK   81  A    between atoms: _199  and  _201
REMARK   82  A    between atoms: _201  and  _202
REMARK   83  A    between atoms: _201  and  _204
REMARK   84  A    between atoms: _207  and  _209
REMARK   85  A    between atoms: _209  and  _210
REMARK   86  A    between atoms: _209  and  _212
REMARK   87  A    between atoms: _212  and  _213
REMARK   88  A    between atoms: _215  and  _217
REMARK   89  A    between atoms: _217  and  _218
REMARK   90  A    between atoms: _217  and  _220
REMARK   91  A    between atoms: _220  and  _221
REMARK   92  A    between atoms: _223  and  _225
REMARK   93  A    between atoms: _225  and  _226
REMARK   94  A    between atoms: _225  and  _228
REMARK   95  A    between atoms: _228  and  _229
REMARK   96  A    between atoms: _229  and  _230
REMARK   97  A    between atoms: _235  and  _237
REMARK   98  A    between atoms: _237  and  _238
REMARK   99  A    between atoms: _237  and  _240
REMARK  100  A    between atoms: _240  and  _241
REMARK  101  A    between atoms: _247  and  _249
REMARK  102  A    between atoms: _249  and  _250
REMARK  103  A    between atoms: _249  and  _252
REMARK  104  A    between atoms: _252  and  _253
REMARK  105  A    between atoms: _256  and  _258
REMARK  106  A    between atoms: _258  and  _259
REMARK  107  A    between atoms: _258  and  _261
REMARK  108  A    between atoms: _261  and  _262
REMARK  109  A    between atoms: _265  and  _267
REMARK  110  A    between atoms: _267  and  _268
REMARK  111  A    between atoms: _271  and  _273
REMARK  112  A    between atoms: _273  and  _274
REMARK  113  A    between atoms: _273  and  _276
REMARK  114  A    between atoms: _276  and  _277
REMARK  115  A    between atoms: _277  and  _278
REMARK  116  A    between atoms: _280  and  _282
REMARK  117  A    between atoms: _282  and  _283
REMARK  118  A    between atoms: _282  and  _285
REMARK  119  A    between atoms: _285  and  _286
REMARK  120  A    between atoms: _289  and  _291
REMARK  121  A    between atoms: _291  and  _292
REMARK  122  A    between atoms: _291  and  _294
REMARK  123  A    between atoms: _297  and  _299
REMARK  124  A    between atoms: _299  and  _300
REMARK  125  A    between atoms: _299  and  _302
REMARK  126  A    between atoms: _302  and  _303
REMARK  127  A    between atoms: _305  and  _307
REMARK  128  A    between atoms: _307  and  _308
REMARK  129  A    between atoms: _307  and  _310
REMARK  130  A    between atoms: _310  and  _311
REMARK  131  A    between atoms: _311  and  _312
REMARK  132  A    between atoms: _312  and  _313
REMARK  133  A    between atoms: _313  and  _314
REMARK  134  A    between atoms: _319  and  _320
REMARK  135  A    between atoms: _325  and  _327
REMARK  136  A    between atoms: _327  and  _328
REMARK  137  A    between atoms: _327  and  _330
REMARK  138  A    between atoms: _330  and  _331
REMARK  139  A    between atoms: _336  and  _337
REMARK  140  A    between atoms: _339  and  _341
REMARK  141  A    between atoms: _341  and  _342
REMARK  142  A    between atoms: _341  and  _344
REMARK  143  A    between atoms: _344  and  _345
REMARK  144  A    between atoms: _348  and  _350
REMARK  145  A    between atoms: _350  and  _351
REMARK  146  A    between atoms: _350  and  _353
REMARK  147  A    between atoms: _353  and  _354
REMARK  148  A    between atoms: _357  and  _359
REMARK  149  A    between atoms: _359  and  _360
REMARK  150  A    between atoms: _359  and  _362
REMARK  151  A    between atoms: _362  and  _363
REMARK  152  A    between atoms: _366  and  _368
REMARK  153  A    between atoms: _368  and  _369
REMARK  154  A    between atoms: _368  and  _371
REMARK  155  A    between atoms: _371  and  _372
REMARK  156  A    between atoms: _375  and  _377
REMARK  157  A    between atoms: _377  and  _378
REMARK  158  A    between atoms: _377  and  _380
REMARK  159  A    between atoms: _380  and  _381
REMARK  160  A    between atoms: _383  and  _385
REMARK  161  A    between atoms: _385  and  _386
REMARK  162  A    between atoms: _385  and  _388
REMARK  163  A    between atoms: _388  and  _389
REMARK  164  A    between atoms: _394  and  _395
REMARK  165  A    between atoms: _397  and  _399
REMARK  166  A    between atoms: _399  and  _400
REMARK  167  A    between atoms: _399  and  _402
REMARK  168  A    between atoms: _402  and  _403
REMARK  169  A    between atoms: _406  and  _408
REMARK  170  A    between atoms: _408  and  _409
REMARK  171  A    between atoms: _408  and  _411
REMARK  172  A    between atoms: _411  and  _412
REMARK  173  A    between atoms: _417  and  _419
REMARK  174  A    between atoms: _419  and  _420
REMARK  175  A    between atoms: _419  and  _422
REMARK  176  A    between atoms: _422  and  _423
REMARK  177  A    between atoms: _427  and  _428
REMARK  178  A    between atoms: _433  and  _435
REMARK  179  A    between atoms: _435  and  _436
REMARK  180  A    between atoms: _435  and  _438
REMARK  181  A    between atoms: _438  and  _439
REMARK  182  A    between atoms: _442  and  _444
REMARK  183  A    between atoms: _444  and  _445
REMARK  184  A    between atoms: _448  and  _450
REMARK  185  A    between atoms: _450  and  _451
REMARK  186  A    between atoms: _450  and  _453
REMARK  187  A    between atoms: _453  and  _454
REMARK  188  A    between atoms: _454  and  _455
REMARK  189  A    between atoms: _457  and  _459
REMARK  190  A    between atoms: _459  and  _460
REMARK  191  A    between atoms: _459  and  _462
REMARK  192  A    between atoms: _462  and  _463
REMARK  193  A    between atoms: _468  and  _470
REMARK  194  A    between atoms: _470  and  _471
REMARK  195  A    between atoms: _470  and  _473
REMARK  196  A    between atoms: _473  and  _474
REMARK  197  A    between atoms: _484  and  _486
REMARK  198  A    between atoms: _486  and  _487
REMARK  199  A    between atoms: _486  and  _489
REMARK  200  A    between atoms: _492  and  _494
REMARK  201  A    between atoms: _494  and  _495
REMARK  202  A    between atoms: _494  and  _497
REMARK  203  A    between atoms: _497  and  _498
REMARK  204  A    between atoms: _498  and  _499
REMARK  205  A    between atoms: _499  and  _500
REMARK  206  A    between atoms: _500  and  _501
REMARK  207  A    between atoms: _505  and  _507
REMARK  208  A    between atoms: _507  and  _508
REMARK  209  A    between atoms: _507  and  _510
REMARK  210  A    between atoms: _510  and  _511
REMARK  211  A    between atoms: _511  and  _512
REMARK  212  A    between atoms: _515  and  _517
REMARK  213  A    between atoms: _517  and  _518
REMARK  214  A    between atoms: _517  and  _520
REMARK  215  A    between atoms: _520  and  _521
REMARK  216  A    between atoms: _524  and  _526
REMARK  217  A    between atoms: _526  and  _527
REMARK  218  A    between atoms: _526  and  _529
REMARK  219  A    between atoms: _529  and  _530
REMARK  220  A    between atoms: _530  and  _531
REMARK  221  A    between atoms: _531  and  _532
REMARK  222  A    between atoms: _541  and  _543
REMARK  223  A    between atoms: _543  and  _544
REMARK  224  A    between atoms: _543  and  _546
REMARK  225  A    between atoms: _546  and  _547
REMARK  226  A    between atoms: _550  and  _552
REMARK  227  A    between atoms: _552  and  _553
REMARK  228  A    between atoms: _552  and  _555
REMARK  229  A    between atoms: _555  and  _556
REMARK  230  A    between atoms: _561  and  _563
REMARK  231  A    between atoms: _563  and  _564
REMARK  232  A    between atoms: _563  and  _566
REMARK  233  A    between atoms: _566  and  _567
REMARK  234  A    between atoms: _567  and  _568
REMARK  235  A    between atoms: _568  and  _569
REMARK  236  A    between atoms: _578  and  _580
REMARK  237  A    between atoms: _580  and  _581
REMARK  238  A    between atoms: _580  and  _583
REMARK  239  A    between atoms: _583  and  _584
REMARK  240  A    between atoms: _584  and  _585
REMARK  241  A    between atoms: _587  and  _589
REMARK  242  A    between atoms: _589  and  _590
REMARK  243  A    between atoms: _589  and  _592
REMARK  244  A    between atoms: _592  and  _593
REMARK  245  A    between atoms: _593  and  _594
REMARK  246  A    between atoms: _596  and  _598
REMARK  247  A    between atoms: _598  and  _599
REMARK  248  A    between atoms: _598  and  _601
REMARK  249  A    between atoms: _601  and  _602
REMARK  250  A    between atoms: _602  and  _603
REMARK  251  A    between atoms: _603  and  _604
REMARK  252  A    between atoms: _604  and  _605
REMARK  253  A    between atoms: _609  and  _611
REMARK  254  A    between atoms: _611  and  _612
REMARK  255  A    between atoms: _611  and  _614
REMARK  256  A    between atoms: _614  and  _615
REMARK                            x       y       z     vdW  Elec       q    Type
REMARK                         _______ _______ _______ _____ _____    ______ ____
ROOT
ATOM      1  O   HOH     1      48.364   8.351  21.622  0.00  0.00    +0.000 OA
ENDROOT
TORSDOF 0
REMARK  Name = ../refined-set-2016/1x8r/1x8r_pocket.pdb
REMARK  256 active torsions:
REMARK  status: ('A' for Active; 'I' for Inactive)
REMARK    1  A    between atoms: _1  and  _3
REMARK    2  A    between atoms: _3  and  _4
REMARK    3  A    between atoms: _3  and  _6
REMARK    4  A    between atoms: _6  and  _7
REMARK    5  A    between atoms: _9  and  _11
REMARK    6  A    between atoms: _11  and  _12
REMARK    7  A    between atoms: _11  and  _14
REMARK    8  A    between atoms: _14  and  _15
REMARK    9  A    between atoms: _15  and  _16
REMARK   10  A    between atoms: _16  and  _17
REMARK   11  A    between atoms: _17  and  _18
REMARK   12  A    between atoms: _22  and  _24
REMARK   13  A    between atoms: _24  and  _25
REMARK   14  A    between atoms: _24  and  _27
REMARK   15  A    between atoms: _27  and  _28
REMARK   16  A    between atoms: _30  and  _32
REMARK   17  A    between atoms: _32  and  _33
REMARK   18  A    between atoms: _32  and  _35
REMARK   19  A    between atoms: _38  and  _40
REMARK   20  A    between atoms: _40  and  _41
REMARK   21  A    between atoms: _40  and  _43
REMARK   22  A    between atoms: _43  and  _44
REMARK   23  A    between atoms: _46  and  _48
REMARK   24  A    between atoms: _48  and  _49
REMARK   25  A    between atoms: _48  and  _51
REMARK   26  A    between atoms: _51  and  _52
REMARK   27  A    between atoms: _57  and  _59
REMARK   28  A    between atoms: _59  and  _60
REMARK   29  A    between atoms: _59  and  _62
REMARK   30  A    between atoms: _62  and  _63
REMARK   31  A    between atoms: _63  and  _64
REMARK   32  A    between atoms: _64  and  _65
REMARK   33  A    between atoms: _74  and  _76
REMARK   34  A    between atoms: _76  and  _77
REMARK   35  A    between atoms: _76  and  _79
REMARK   36  A    between atoms: _79  and  _80
REMARK   37  A    between atoms: _83  and  _85
REMARK   38  A    between atoms: _85  and  _86
REMARK   39  A    between atoms: _85  and  _88
REMARK   40  A    between atoms: _88  and  _89
REMARK   41  A    between atoms: _94  and  _96
REMARK   42  A    between atoms: _96  and  _97
REMARK   43  A    between atoms: _100  and  _102
REMARK   44  A    between atoms: _102  and  _103
REMARK   45  A    between atoms: _105  and  _107
REMARK   46  A    between atoms: _107  and  _108
REMARK   47  A    between atoms: _107  and  _110
REMARK   48  A    between atoms: _110  and  _111
REMARK   49  A    between atoms: _114  and  _116
REMARK   50  A    between atoms: _116  and  _117
REMARK   51  A    between atoms: _120  and  _122
REMARK   52  A    between atoms: _122  and  _123
REMARK   53  A    between atoms: _122  and  _125
REMARK   54  A    between atoms: _125  and  _126
REMARK   55  A    between atoms: _126  and  _127
REMARK   56  A    between atoms: _129  and  _131
REMARK   57  A    between atoms: _131  and  _132
REMARK   58  A    between atoms: _131  and  _134
REMARK   59  A    between atoms: _134  and  _135
REMARK   60  A    between atoms: _135  and  _136
REMARK   61  A    between atoms: _136  and  _137
REMARK   62  A    between atoms: _147  and  _148
REMARK   63  A    between atoms: _153  and  _155
REMARK   64  A    between atoms: _155  and  _156
REMARK   65  A    between atoms: _155  and  _158
REMARK   66  A    between atoms: _158  and  _159
REMARK   67  A    between atoms: _159  and  _160
REMARK   68  A    between atoms: _162  and  _164
REMARK   69  A    between atoms: _164  and  _165
REMARK   70  A    between atoms: _164  and  _167
REMARK   71  A    between atoms: _167  and  _168
REMARK   72  A    between atoms: _168  and  _169
REMARK   73  A    between atoms: _169  and  _170
REMARK   74  A    between atoms: _180  and  _181
REMARK   75  A    between atoms: _186  and  _188
REMARK   76  A    between atoms: _188  and  _189
REMARK   77  A    between atoms: _191  and  _193
REMARK   78  A    between atoms: _193  and  _194
REMARK   79  A    between atoms: _193  and  _196
REMARK   80  A    between atoms: _196  and  _197
REMARK   81  A    between atoms: _199  and  _201
REMARK   82  A    between atoms: _201  and  _202
REMARK   83  A    between atoms: _201  and  _204
REMARK   84  A    between atoms: _207  and  _209
REMARK   85  A    between atoms: _209  and  _210
REMARK   86  A    between atoms: _209  and  _212
REMARK   87  A    between atoms: _212  and  _213
REMARK   88  A    between atoms: _215  and  _217
REMARK   89  A    between atoms: _217  and  _218
REMARK   90  A    between atoms: _217  and  _220
REMARK   91  A    between atoms: _220  and  _221
REMARK   92  A    between atoms: _223  and  _225
REMARK   93  A    between atoms: _225  and  _226
REMARK   94  A    between atoms: _225  and  _228
REMARK   95  A    between atoms: _228  and  _229
REMARK   96  A    between atoms: _229  and  _230
REMARK   97  A    between atoms: _235  and  _237
REMARK   98  A    between atoms: _237  and  _238
REMARK   99  A    between atoms: _237  and  _240
REMARK  100  A    between atoms: _240  and  _241
REMARK  101  A    between atoms: _247  and  _249
REMARK  102  A    between atoms: _249  and  _250
REMARK  103  A    between atoms: _249  and  _252
REMARK  104  A    between atoms: _252  and  _253
REMARK  105  A    between atoms: _256  and  _258
REMARK  106  A    between atoms: _258  and  _259
REMARK  107  A    between atoms: _258  and  _261
REMARK  108  A    between atoms: _261  and  _262
REMARK  109  A    between atoms: _265  and  _267
REMARK  110  A    between atoms: _267  and  _268
REMARK  111  A    between atoms: _271  and  _273
REMARK  112  A    between atoms: _273  and  _274
REMARK  113  A    between atoms: _273  and  _276
REMARK  114  A    between atoms: _276  and  _277
REMARK  115  A    between atoms: _277  and  _278
REMARK  116  A    between atoms: _280  and  _282
REMARK  117  A    between atoms: _282  and  _283
REMARK  118  A    between atoms: _282  and  _285
REMARK  119  A    between atoms: _285  and  _286
REMARK  120  A    between atoms: _289  and  _291
REMARK  121  A    between atoms: _291  and  _292
REMARK  122  A    between atoms: _291  and  _294
REMARK  123  A    between atoms: _297  and  _299
REMARK  124  A    between atoms: _299  and  _300
REMARK  125  A    between atoms: _299  and  _302
REMARK  126  A    between atoms: _302  and  _303
REMARK  127  A    between atoms: _305  and  _307
REMARK  128  A    between atoms: _307  and  _308
REMARK  129  A    between atoms: _307  and  _310
REMARK  130  A    between atoms: _310  and  _311
REMARK  131  A    between atoms: _311  and  _312
REMARK  132  A    between atoms: _312  and  _313
REMARK  133  A    between atoms: _313  and  _314
REMARK  134  A    between atoms: _319  and  _320
REMARK  135  A    between atoms: _325  and  _327
REMARK  136  A    between atoms: _327  and  _328
REMARK  137  A    between atoms: _327  and  _330
REMARK  138  A    between atoms: _330  and  _331
REMARK  139  A    between atoms: _336  and  _337
REMARK  140  A    between atoms: _339  and  _341
REMARK  141  A    between atoms: _341  and  _342
REMARK  142  A    between atoms: _341  and  _344
REMARK  143  A    between atoms: _344  and  _345
REMARK  144  A    between atoms: _348  and  _350
REMARK  145  A    between atoms: _350  and  _351
REMARK  146  A    between atoms: _350  and  _353
REMARK  147  A    between atoms: _353  and  _354
REMARK  148  A    between atoms: _357  and  _359
REMARK  149  A    between atoms: _359  and  _360
REMARK  150  A    between atoms: _359  and  _362
REMARK  151  A    between atoms: _362  and  _363
REMARK  152  A    between atoms: _366  and  _368
REMARK  153  A    between atoms: _368  and  _369
REMARK  154  A    between atoms: _368  and  _371
REMARK  155  A    between atoms: _371  and  _372
REMARK  156  A    between atoms: _375  and  _377
REMARK  157  A    between atoms: _377  and  _378
REMARK  158  A    between atoms: _377  and  _380
REMARK  159  A    between atoms: _380  and  _381
REMARK  160  A    between atoms: _383  and  _385
REMARK  161  A    between atoms: _385  and  _386
REMARK  162  A    between atoms: _385  and  _388
REMARK  163  A    between atoms: _388  and  _389
REMARK  164  A    between atoms: _394  and  _395
REMARK  165  A    between atoms: _397  and  _399
REMARK  166  A    between atoms: _399  and  _400
REMARK  167  A    between atoms: _399  and  _402
REMARK  168  A    between atoms: _402  and  _403
REMARK  169  A    between atoms: _406  and  _408
REMARK  170  A    between atoms: _408  and  _409
REMARK  171  A    between atoms: _408  and  _411
REMARK  172  A    between atoms: _411  and  _412
REMARK  173  A    between atoms: _417  and  _419
REMARK  174  A    between atoms: _419  and  _420
REMARK  175  A    between atoms: _419  and  _422
REMARK  176  A    between atoms: _422  and  _423
REMARK  177  A    between atoms: _427  and  _428
REMARK  178  A    between atoms: _433  and  _435
REMARK  179  A    between atoms: _435  and  _436
REMARK  180  A    between atoms: _435  and  _438
REMARK  181  A    between atoms: _438  and  _439
REMARK  182  A    between atoms: _442  and  _444
REMARK  183  A    between atoms: _444  and  _445
REMARK  184  A    between atoms: _448  and  _450
REMARK  185  A    between atoms: _450  and  _451
REMARK  186  A    between atoms: _450  and  _453
REMARK  187  A    between atoms: _453  and  _454
REMARK  188  A    between atoms: _454  and  _455
REMARK  189  A    between atoms: _457  and  _459
REMARK  190  A    between atoms: _459  and  _460
REMARK  191  A    between atoms: _459  and  _462
REMARK  192  A    between atoms: _462  and  _463
REMARK  193  A    between atoms: _468  and  _470
REMARK  194  A    between atoms: _470  and  _471
REMARK  195  A    between atoms: _470  and  _473
REMARK  196  A    between atoms: _473  and  _474
REMARK  197  A    between atoms: _484  and  _486
REMARK  198  A    between atoms: _486  and  _487
REMARK  199  A    between atoms: _486  and  _489
REMARK  200  A    between atoms: _492  and  _494
REMARK  201  A    between atoms: _494  and  _495
REMARK  202  A    between atoms: _494  and  _497
REMARK  203  A    between atoms: _497  and  _498
REMARK  204  A    between atoms: _498  and  _499
REMARK  205  A    between atoms: _499  and  _500
REMARK  206  A    between atoms: _500  and  _501
REMARK  207  A    between atoms: _505  and  _507
REMARK  208  A    between atoms: _507  and  _508
REMARK  209  A    between atoms: _507  and  _510
REMARK  210  A    between atoms: _510  and  _511
REMARK  211  A    between atoms: _511  and  _512
REMARK  212  A    between atoms: _515  and  _517
REMARK  213  A    between atoms: _517  and  _518
REMARK  214  A    between atoms: _517  and  _520
REMARK  215  A    between atoms: _520  and  _521
REMARK  216  A    between atoms: _524  and  _526
REMARK  217  A    between atoms: _526  and  _527
REMARK  218  A    between atoms: _526  and  _529
REMARK  219  A    between atoms: _529  and  _530
REMARK  220  A    between atoms: _530  and  _531
REMARK  221  A    between atoms: _531  and  _532
REMARK  222  A    between atoms: _541  and  _543
REMARK  223  A    between atoms: _543  and  _544
REMARK  224  A    between atoms: _543  and  _546
REMARK  225  A    between atoms: _546  and  _547
REMARK  226  A    between atoms: _550  and  _552
REMARK  227  A    between atoms: _552  and  _553
REMARK  228  A    between atoms: _552  and  _555
REMARK  229  A    between atoms: _555  and  _556
REMARK  230  A    between atoms: _561  and  _563
REMARK  231  A    between atoms: _563  and  _564
REMARK  232  A    between atoms: _563  and  _566
REMARK  233  A    between atoms: _566  and  _567
REMARK  234  A    between atoms: _567  and  _568
REMARK  235  A    between atoms: _568  and  _569
REMARK  236  A    between atoms: _578  and  _580
REMARK  237  A    between atoms: _580  and  _581
REMARK  238  A    between atoms: _580  and  _583
REMARK  239  A    between atoms: _583  and  _584
REMARK  240  A    between atoms: _584  and  _585
REMARK  241  A    between atoms: _587  and  _589
REMARK  242  A    between atoms: _589  and  _590
REMARK  243  A    between atoms: _589  and  _592
REMARK  244  A    between atoms: _592  and  _593
REMARK  245  A    between atoms: _593  and  _594
REMARK  246  A    between atoms: _596  and  _598
REMARK  247  A    between atoms: _598  and  _599
REMARK  248  A    between atoms: _598  and  _601
REMARK  249  A    between atoms: _601  and  _602
REMARK  250  A    between atoms: _602  and  _603
REMARK  251  A    between atoms: _603  and  _604
REMARK  252  A    between atoms: _604  and  _605
REMARK  253  A    between atoms: _609  and  _611
REMARK  254  A    between atoms: _611  and  _612
REMARK  255  A    between atoms: _611  and  _614
REMARK  256  A    between atoms: _614  and  _615
REMARK                            x       y       z     vdW  Elec       q    Type
REMARK                         _______ _______ _______ _____ _____    ______ ____
ROOT
ATOM      1  O   HOH     1      56.809   5.381  33.559  0.00  0.00    +0.000 OA
ENDROOT
TORSDOF 0
REMARK  Name = ../refined-set-2016/1x8r/1x8r_pocket.pdb
REMARK  256 active torsions:
REMARK  status: ('A' for Active; 'I' for Inactive)
REMARK    1  A    between atoms: _1  and  _3
REMARK    2  A    between atoms: _3  and  _4
REMARK    3  A    between atoms: _3  and  _6
REMARK    4  A    between atoms: _6  and  _7
REMARK    5  A    between atoms: _9  and  _11
REMARK    6  A    between atoms: _11  and  _12
REMARK    7  A    between atoms: _11  and  _14
REMARK    8  A    between atoms: _14  and  _15
REMARK    9  A    between atoms: _15  and  _16
REMARK   10  A    between atoms: _16  and  _17
REMARK   11  A    between atoms: _17  and  _18
REMARK   12  A    between atoms: _22  and  _24
REMARK   13  A    between atoms: _24  and  _25
REMARK   14  A    between atoms: _24  and  _27
REMARK   15  A    between atoms: _27  and  _28
REMARK   16  A    between atoms: _30  and  _32
REMARK   17  A    between atoms: _32  and  _33
REMARK   18  A    between atoms: _32  and  _35
REMARK   19  A    between atoms: _38  and  _40
REMARK   20  A    between atoms: _40  and  _41
REMARK   21  A    between atoms: _40  and  _43
REMARK   22  A    between atoms: _43  and  _44
REMARK   23  A    between atoms: _46  and  _48
REMARK   24  A    between atoms: _48  and  _49
REMARK   25  A    between atoms: _48  and  _51
REMARK   26  A    between atoms: _51  and  _52
REMARK   27  A    between atoms: _57  and  _59
REMARK   28  A    between atoms: _59  and  _60
REMARK   29  A    between atoms: _59  and  _62
REMARK   30  A    between atoms: _62  and  _63
REMARK   31  A    between atoms: _63  and  _64
REMARK   32  A    between atoms: _64  and  _65
REMARK   33  A    between atoms: _74  and  _76
REMARK   34  A    between atoms: _76  and  _77
REMARK   35  A    between atoms: _76  and  _79
REMARK   36  A    between atoms: _79  and  _80
REMARK   37  A    between atoms: _83  and  _85
REMARK   38  A    between atoms: _85  and  _86
REMARK   39  A    between atoms: _85  and  _88
REMARK   40  A    between atoms: _88  and  _89
REMARK   41  A    between atoms: _94  and  _96
REMARK   42  A    between atoms: _96  and  _97
REMARK   43  A    between atoms: _100  and  _102
REMARK   44  A    between atoms: _102  and  _103
REMARK   45  A    between atoms: _105  and  _107
REMARK   46  A    between atoms: _107  and  _108
REMARK   47  A    between atoms: _107  and  _110
REMARK   48  A    between atoms: _110  and  _111
REMARK   49  A    between atoms: _114  and  _116
REMARK   50  A    between atoms: _116  and  _117
REMARK   51  A    between atoms: _120  and  _122
REMARK   52  A    between atoms: _122  and  _123
REMARK   53  A    between atoms: _122  and  _125
REMARK   54  A    between atoms: _125  and  _126
REMARK   55  A    between atoms: _126  and  _127
REMARK   56  A    between atoms: _129  and  _131
REMARK   57  A    between atoms: _131  and  _132
REMARK   58  A    between atoms: _131  and  _134
REMARK   59  A    between atoms: _134  and  _135
REMARK   60  A    between atoms: _135  and  _136
REMARK   61  A    between atoms: _136  and  _137
REMARK   62  A    between atoms: _147  and  _148
REMARK   63  A    between atoms: _153  and  _155
REMARK   64  A    between atoms: _155  and  _156
REMARK   65  A    between atoms: _155  and  _158
REMARK   66  A    between atoms: _158  and  _159
REMARK   67  A    between atoms: _159  and  _160
REMARK   68  A    between atoms: _162  and  _164
REMARK   69  A    between atoms: _164  and  _165
REMARK   70  A    between atoms: _164  and  _167
REMARK   71  A    between atoms: _167  and  _168
REMARK   72  A    between atoms: _168  and  _169
REMARK   73  A    between atoms: _169  and  _170
REMARK   74  A    between atoms: _180  and  _181
REMARK   75  A    between atoms: _186  and  _188
REMARK   76  A    between atoms: _188  and  _189
REMARK   77  A    between atoms: _191  and  _193
REMARK   78  A    between atoms: _193  and  _194
REMARK   79  A    between atoms: _193  and  _196
REMARK   80  A    between atoms: _196  and  _197
REMARK   81  A    between atoms: _199  and  _201
REMARK   82  A    between atoms: _201  and  _202
REMARK   83  A    between atoms: _201  and  _204
REMARK   84  A    between atoms: _207  and  _209
REMARK   85  A    between atoms: _209  and  _210
REMARK   86  A    between atoms: _209  and  _212
REMARK   87  A    between atoms: _212  and  _213
REMARK   88  A    between atoms: _215  and  _217
REMARK   89  A    between atoms: _217  and  _218
REMARK   90  A    between atoms: _217  and  _220
REMARK   91  A    between atoms: _220  and  _221
REMARK   92  A    between atoms: _223  and  _225
REMARK   93  A    between atoms: _225  and  _226
REMARK   94  A    between atoms: _225  and  _228
REMARK   95  A    between atoms: _228  and  _229
REMARK   96  A    between atoms: _229  and  _230
REMARK   97  A    between atoms: _235  and  _237
REMARK   98  A    between atoms: _237  and  _238
REMARK   99  A    between atoms: _237  and  _240
REMARK  100  A    between atoms: _240  and  _241
REMARK  101  A    between atoms: _247  and  _249
REMARK  102  A    between atoms: _249  and  _250
REMARK  103  A    between atoms: _249  and  _252
REMARK  104  A    between atoms: _252  and  _253
REMARK  105  A    between atoms: _256  and  _258
REMARK  106  A    between atoms: _258  and  _259
REMARK  107  A    between atoms: _258  and  _261
REMARK  108  A    between atoms: _261  and  _262
REMARK  109  A    between atoms: _265  and  _267
REMARK  110  A    between atoms: _267  and  _268
REMARK  111  A    between atoms: _271  and  _273
REMARK  112  A    between atoms: _273  and  _274
REMARK  113  A    between atoms: _273  and  _276
REMARK  114  A    between atoms: _276  and  _277
REMARK  115  A    between atoms: _277  and  _278
REMARK  116  A    between atoms: _280  and  _282
REMARK  117  A    between atoms: _282  and  _283
REMARK  118  A    between atoms: _282  and  _285
REMARK  119  A    between atoms: _285  and  _286
REMARK  120  A    between atoms: _289  and  _291
REMARK  121  A    between atoms: _291  and  _292
REMARK  122  A    between atoms: _291  and  _294
REMARK  123  A    between atoms: _297  and  _299
REMARK  124  A    between atoms: _299  and  _300
REMARK  125  A    between atoms: _299  and  _302
REMARK  126  A    between atoms: _302  and  _303
REMARK  127  A    between atoms: _305  and  _307
REMARK  128  A    between atoms: _307  and  _308
REMARK  129  A    between atoms: _307  and  _310
REMARK  130  A    between atoms: _310  and  _311
REMARK  131  A    between atoms: _311  and  _312
REMARK  132  A    between atoms: _312  and  _313
REMARK  133  A    between atoms: _313  and  _314
REMARK  134  A    between atoms: _319  and  _320
REMARK  135  A    between atoms: _325  and  _327
REMARK  136  A    between atoms: _327  and  _328
REMARK  137  A    between atoms: _327  and  _330
REMARK  138  A    between atoms: _330  and  _331
REMARK  139  A    between atoms: _336  and  _337
REMARK  140  A    between atoms: _339  and  _341
REMARK  141  A    between atoms: _341  and  _342
REMARK  142  A    between atoms: _341  and  _344
REMARK  143  A    between atoms: _344  and  _345
REMARK  144  A    between atoms: _348  and  _350
REMARK  145  A    between atoms: _350  and  _351
REMARK  146  A    between atoms: _350  and  _353
REMARK  147  A    between atoms: _353  and  _354
REMARK  148  A    between atoms: _357  and  _359
REMARK  149  A    between atoms: _359  and  _360
REMARK  150  A    between atoms: _359  and  _362
REMARK  151  A    between atoms: _362  and  _363
REMARK  152  A    between atoms: _366  and  _368
REMARK  153  A    between atoms: _368  and  _369
REMARK  154  A    between atoms: _368  and  _371
REMARK  155  A    between atoms: _371  and  _372
REMARK  156  A    between atoms: _375  and  _377
REMARK  157  A    between atoms: _377  and  _378
REMARK  158  A    between atoms: _377  and  _380
REMARK  159  A    between atoms: _380  and  _381
REMARK  160  A    between atoms: _383  and  _385
REMARK  161  A    between atoms: _385  and  _386
REMARK  162  A    between atoms: _385  and  _388
REMARK  163  A    between atoms: _388  and  _389
REMARK  164  A    between atoms: _394  and  _395
REMARK  165  A    between atoms: _397  and  _399
REMARK  166  A    between atoms: _399  and  _400
REMARK  167  A    between atoms: _399  and  _402
REMARK  168  A    between atoms: _402  and  _403
REMARK  169  A    between atoms: _406  and  _408
REMARK  170  A    between atoms: _408  and  _409
REMARK  171  A    between atoms: _408  and  _411
REMARK  172  A    between atoms: _411  and  _412
REMARK  173  A    between atoms: _417  and  _419
REMARK  174  A    between atoms: _419  and  _420
REMARK  175  A    between atoms: _419  and  _422
REMARK  176  A    between atoms: _422  and  _423
REMARK  177  A    between atoms: _427  and  _428
REMARK  178  A    between atoms: _433  and  _435
REMARK  179  A    between atoms: _435  and  _436
REMARK  180  A    between atoms: _435  and  _438
REMARK  181  A    between atoms: _438  and  _439
REMARK  182  A    between atoms: _442  and  _444
REMARK  183  A    between atoms: _444  and  _445
REMARK  184  A    between atoms: _448  and  _450
REMARK  185  A    between atoms: _450  and  _451
REMARK  186  A    between atoms: _450  and  _453
REMARK  187  A    between atoms: _453  and  _454
REMARK  188  A    between atoms: _454  and  _455
REMARK  189  A    between atoms: _457  and  _459
REMARK  190  A    between atoms: _459  and  _460
REMARK  191  A    between atoms: _459  and  _462
REMARK  192  A    between atoms: _462  and  _463
REMARK  193  A    between atoms: _468  and  _470
REMARK  194  A    between atoms: _470  and  _471
REMARK  195  A    between atoms: _470  and  _473
REMARK  196  A    between atoms: _473  and  _474
REMARK  197  A    between atoms: _484  and  _486
REMARK  198  A    between atoms: _486  and  _487
REMARK  199  A    between atoms: _486  and  _489
REMARK  200  A    between atoms: _492  and  _494
REMARK  201  A    between atoms: _494  and  _495
REMARK  202  A    between atoms: _494  and  _497
REMARK  203  A    between atoms: _497  and  _498
REMARK  204  A    between atoms: _498  and  _499
REMARK  205  A    between atoms: _499  and  _500
REMARK  206  A    between atoms: _500  and  _501
REMARK  207  A    between atoms: _505  and  _507
REMARK  208  A    between atoms: _507  and  _508
REMARK  209  A    between atoms: _507  and  _510
REMARK  210  A    between atoms: _510  and  _511
REMARK  211  A    between atoms: _511  and  _512
REMARK  212  A    between atoms: _515  and  _517
REMARK  213  A    between atoms: _517  and  _518
REMARK  214  A    between atoms: _517  and  _520
REMARK  215  A    between atoms: _520  and  _521
REMARK  216  A    between atoms: _524  and  _526
REMARK  217  A    between atoms: _526  and  _527
REMARK  218  A    between atoms: _526  and  _529
REMARK  219  A    between atoms: _529  and  _530
REMARK  220  A    between atoms: _530  and  _531
REMARK  221  A    between atoms: _531  and  _532
REMARK  222  A    between atoms: _541  and  _543
REMARK  223  A    between atoms: _543  and  _544
REMARK  224  A    between atoms: _543  and  _546
REMARK  225  A    between atoms: _546  and  _547
REMARK  226  A    between atoms: _550  and  _552
REMARK  227  A    between atoms: _552  and  _553
REMARK  228  A    between atoms: _552  and  _555
REMARK  229  A    between atoms: _555  and  _556
REMARK  230  A    between atoms: _561  and  _563
REMARK  231  A    between atoms: _563  and  _564
REMARK  232  A    between atoms: _563  and  _566
REMARK  233  A    between atoms: _566  and  _567
REMARK  234  A    between atoms: _567  and  _568
REMARK  235  A    between atoms: _568  and  _569
REMARK  236  A    between atoms: _578  and  _580
REMARK  237  A    between atoms: _580  and  _581
REMARK  238  A    between atoms: _580  and  _583
REMARK  239  A    between atoms: _583  and  _584
REMARK  240  A    between atoms: _584  and  _585
REMARK  241  A    between atoms: _587  and  _589
REMARK  242  A    between atoms: _589  and  _590
REMARK  243  A    between atoms: _589  and  _592
REMARK  244  A    between atoms: _592  and  _593
REMARK  245  A    between atoms: _593  and  _594
REMARK  246  A    between atoms: _596  and  _598
REMARK  247  A    between atoms: _598  and  _599
REMARK  248  A    between atoms: _598  and  _601
REMARK  249  A    between atoms: _601  and  _602
REMARK  250  A    between atoms: _602  and  _603
REMARK  251  A    between atoms: _603  and  _604
REMARK  252  A    between atoms: _604  and  _605
REMARK  253  A    between atoms: _609  and  _611
REMARK  254  A    between atoms: _611  and  _612
REMARK  255  A    between atoms: _611  and  _614
REMARK  256  A    between atoms: _614  and  _615
REMARK                            x       y       z     vdW  Elec       q    Type
REMARK                         _______ _______ _______ _____ _____    ______ ____
ROOT
ATOM      1  O   HOH     1      67.887   6.307  30.403  0.00  0.00    +0.000 OA
ENDROOT
TORSDOF 0
REMARK  Name = ../refined-set-2016/1x8r/1x8r_pocket.pdb
REMARK  256 active torsions:
REMARK  status: ('A' for Active; 'I' for Inactive)
REMARK    1  A    between atoms: _1  and  _3
REMARK    2  A    between atoms: _3  and  _4
REMARK    3  A    between atoms: _3  and  _6
REMARK    4  A    between atoms: _6  and  _7
REMARK    5  A    between atoms: _9  and  _11
REMARK    6  A    between atoms: _11  and  _12
REMARK    7  A    between atoms: _11  and  _14
REMARK    8  A    between atoms: _14  and  _15
REMARK    9  A    between atoms: _15  and  _16
REMARK   10  A    between atoms: _16  and  _17
REMARK   11  A    between atoms: _17  and  _18
REMARK   12  A    between atoms: _22  and  _24
REMARK   13  A    between atoms: _24  and  _25
REMARK   14  A    between atoms: _24  and  _27
REMARK   15  A    between atoms: _27  and  _28
REMARK   16  A    between atoms: _30  and  _32
REMARK   17  A    between atoms: _32  and  _33
REMARK   18  A    between atoms: _32  and  _35
REMARK   19  A    between atoms: _38  and  _40
REMARK   20  A    between atoms: _40  and  _41
REMARK   21  A    between atoms: _40  and  _43
REMARK   22  A    between atoms: _43  and  _44
REMARK   23  A    between atoms: _46  and  _48
REMARK   24  A    between atoms: _48  and  _49
REMARK   25  A    between atoms: _48  and  _51
REMARK   26  A    between atoms: _51  and  _52
REMARK   27  A    between atoms: _57  and  _59
REMARK   28  A    between atoms: _59  and  _60
REMARK   29  A    between atoms: _59  and  _62
REMARK   30  A    between atoms: _62  and  _63
REMARK   31  A    between atoms: _63  and  _64
REMARK   32  A    between atoms: _64  and  _65
REMARK   33  A    between atoms: _74  and  _76
REMARK   34  A    between atoms: _76  and  _77
REMARK   35  A    between atoms: _76  and  _79
REMARK   36  A    between atoms: _79  and  _80
REMARK   37  A    between atoms: _83  and  _85
REMARK   38  A    between atoms: _85  and  _86
REMARK   39  A    between atoms: _85  and  _88
REMARK   40  A    between atoms: _88  and  _89
REMARK   41  A    between atoms: _94  and  _96
REMARK   42  A    between atoms: _96  and  _97
REMARK   43  A    between atoms: _100  and  _102
REMARK   44  A    between atoms: _102  and  _103
REMARK   45  A    between atoms: _105  and  _107
REMARK   46  A    between atoms: _107  and  _108
REMARK   47  A    between atoms: _107  and  _110
REMARK   48  A    between atoms: _110  and  _111
REMARK   49  A    between atoms: _114  and  _116
REMARK   50  A    between atoms: _116  and  _117
REMARK   51  A    between atoms: _120  and  _122
REMARK   52  A    between atoms: _122  and  _123
REMARK   53  A    between atoms: _122  and  _125
REMARK   54  A    between atoms: _125  and  _126
REMARK   55  A    between atoms: _126  and  _127
REMARK   56  A    between atoms: _129  and  _131
REMARK   57  A    between atoms: _131  and  _132
REMARK   58  A    between atoms: _131  and  _134
REMARK   59  A    between atoms: _134  and  _135
REMARK   60  A    between atoms: _135  and  _136
REMARK   61  A    between atoms: _136  and  _137
REMARK   62  A    between atoms: _147  and  _148
REMARK   63  A    between atoms: _153  and  _155
REMARK   64  A    between atoms: _155  and  _156
REMARK   65  A    between atoms: _155  and  _158
REMARK   66  A    between atoms: _158  and  _159
REMARK   67  A    between atoms: _159  and  _160
REMARK   68  A    between atoms: _162  and  _164
REMARK   69  A    between atoms: _164  and  _165
REMARK   70  A    between atoms: _164  and  _167
REMARK   71  A    between atoms: _167  and  _168
REMARK   72  A    between atoms: _168  and  _169
REMARK   73  A    between atoms: _169  and  _170
REMARK   74  A    between atoms: _180  and  _181
REMARK   75  A    between atoms: _186  and  _188
REMARK   76  A    between atoms: _188  and  _189
REMARK   77  A    between atoms: _191  and  _193
REMARK   78  A    between atoms: _193  and  _194
REMARK   79  A    between atoms: _193  and  _196
REMARK   80  A    between atoms: _196  and  _197
REMARK   81  A    between atoms: _199  and  _201
REMARK   82  A    between atoms: _201  and  _202
REMARK   83  A    between atoms: _201  and  _204
REMARK   84  A    between atoms: _207  and  _209
REMARK   85  A    between atoms: _209  and  _210
REMARK   86  A    between atoms: _209  and  _212
REMARK   87  A    between atoms: _212  and  _213
REMARK   88  A    between atoms: _215  and  _217
REMARK   89  A    between atoms: _217  and  _218
REMARK   90  A    between atoms: _217  and  _220
REMARK   91  A    between atoms: _220  and  _221
REMARK   92  A    between atoms: _223  and  _225
REMARK   93  A    between atoms: _225  and  _226
REMARK   94  A    between atoms: _225  and  _228
REMARK   95  A    between atoms: _228  and  _229
REMARK   96  A    between atoms: _229  and  _230
REMARK   97  A    between atoms: _235  and  _237
REMARK   98  A    between atoms: _237  and  _238
REMARK   99  A    between atoms: _237  and  _240
REMARK  100  A    between atoms: _240  and  _241
REMARK  101  A    between atoms: _247  and  _249
REMARK  102  A    between atoms: _249  and  _250
REMARK  103  A    between atoms: _249  and  _252
REMARK  104  A    between atoms: _252  and  _253
REMARK  105  A    between atoms: _256  and  _258
REMARK  106  A    between atoms: _258  and  _259
REMARK  107  A    between atoms: _258  and  _261
REMARK  108  A    between atoms: _261  and  _262
REMARK  109  A    between atoms: _265  and  _267
REMARK  110  A    between atoms: _267  and  _268
REMARK  111  A    between atoms: _271  and  _273
REMARK  112  A    between atoms: _273  and  _274
REMARK  113  A    between atoms: _273  and  _276
REMARK  114  A    between atoms: _276  and  _277
REMARK  115  A    between atoms: _277  and  _278
REMARK  116  A    between atoms: _280  and  _282
REMARK  117  A    between atoms: _282  and  _283
REMARK  118  A    between atoms: _282  and  _285
REMARK  119  A    between atoms: _285  and  _286
REMARK  120  A    between atoms: _289  and  _291
REMARK  121  A    between atoms: _291  and  _292
REMARK  122  A    between atoms: _291  and  _294
REMARK  123  A    between atoms: _297  and  _299
REMARK  124  A    between atoms: _299  and  _300
REMARK  125  A    between atoms: _299  and  _302
REMARK  126  A    between atoms: _302  and  _303
REMARK  127  A    between atoms: _305  and  _307
REMARK  128  A    between atoms: _307  and  _308
REMARK  129  A    between atoms: _307  and  _310
REMARK  130  A    between atoms: _310  and  _311
REMARK  131  A    between atoms: _311  and  _312
REMARK  132  A    between atoms: _312  and  _313
REMARK  133  A    between atoms: _313  and  _314
REMARK  134  A    between atoms: _319  and  _320
REMARK  135  A    between atoms: _325  and  _327
REMARK  136  A    between atoms: _327  and  _328
REMARK  137  A    between atoms: _327  and  _330
REMARK  138  A    between atoms: _330  and  _331
REMARK  139  A    between atoms: _336  and  _337
REMARK  140  A    between atoms: _339  and  _341
REMARK  141  A    between atoms: _341  and  _342
REMARK  142  A    between atoms: _341  and  _344
REMARK  143  A    between atoms: _344  and  _345
REMARK  144  A    between atoms: _348  and  _350
REMARK  145  A    between atoms: _350  and  _351
REMARK  146  A    between atoms: _350  and  _353
REMARK  147  A    between atoms: _353  and  _354
REMARK  148  A    between atoms: _357  and  _359
REMARK  149  A    between atoms: _359  and  _360
REMARK  150  A    between atoms: _359  and  _362
REMARK  151  A    between atoms: _362  and  _363
REMARK  152  A    between atoms: _366  and  _368
REMARK  153  A    between atoms: _368  and  _369
REMARK  154  A    between atoms: _368  and  _371
REMARK  155  A    between atoms: _371  and  _372
REMARK  156  A    between atoms: _375  and  _377
REMARK  157  A    between atoms: _377  and  _378
REMARK  158  A    between atoms: _377  and  _380
REMARK  159  A    between atoms: _380  and  _381
REMARK  160  A    between atoms: _383  and  _385
REMARK  161  A    between atoms: _385  and  _386
REMARK  162  A    between atoms: _385  and  _388
REMARK  163  A    between atoms: _388  and  _389
REMARK  164  A    between atoms: _394  and  _395
REMARK  165  A    between atoms: _397  and  _399
REMARK  166  A    between atoms: _399  and  _400
REMARK  167  A    between atoms: _399  and  _402
REMARK  168  A    between atoms: _402  and  _403
REMARK  169  A    between atoms: _406  and  _408
REMARK  170  A    between atoms: _408  and  _409
REMARK  171  A    between atoms: _408  and  _411
REMARK  172  A    between atoms: _411  and  _412
REMARK  173  A    between atoms: _417  and  _419
REMARK  174  A    between atoms: _419  and  _420
REMARK  175  A    between atoms: _419  and  _422
REMARK  176  A    between atoms: _422  and  _423
REMARK  177  A    between atoms: _427  and  _428
REMARK  178  A    between atoms: _433  and  _435
REMARK  179  A    between atoms: _435  and  _436
REMARK  180  A    between atoms: _435  and  _438
REMARK  181  A    between atoms: _438  and  _439
REMARK  182  A    between atoms: _442  and  _444
REMARK  183  A    between atoms: _444  and  _445
REMARK  184  A    between atoms: _448  and  _450
REMARK  185  A    between atoms: _450  and  _451
REMARK  186  A    between atoms: _450  and  _453
REMARK  187  A    between atoms: _453  and  _454
REMARK  188  A    between atoms: _454  and  _455
REMARK  189  A    between atoms: _457  and  _459
REMARK  190  A    between atoms: _459  and  _460
REMARK  191  A    between atoms: _459  and  _462
REMARK  192  A    between atoms: _462  and  _463
REMARK  193  A    between atoms: _468  and  _470
REMARK  194  A    between atoms: _470  and  _471
REMARK  195  A    between atoms: _470  and  _473
REMARK  196  A    between atoms: _473  and  _474
REMARK  197  A    between atoms: _484  and  _486
REMARK  198  A    between atoms: _486  and  _487
REMARK  199  A    between atoms: _486  and  _489
REMARK  200  A    between atoms: _492  and  _494
REMARK  201  A    between atoms: _494  and  _495
REMARK  202  A    between atoms: _494  and  _497
REMARK  203  A    between atoms: _497  and  _498
REMARK  204  A    between atoms: _498  and  _499
REMARK  205  A    between atoms: _499  and  _500
REMARK  206  A    between atoms: _500  and  _501
REMARK  207  A    between atoms: _505  and  _507
REMARK  208  A    between atoms: _507  and  _508
REMARK  209  A    between atoms: _507  and  _510
REMARK  210  A    between atoms: _510  and  _511
REMARK  211  A    between atoms: _511  and  _512
REMARK  212  A    between atoms: _515  and  _517
REMARK  213  A    between atoms: _517  and  _518
REMARK  214  A    between atoms: _517  and  _520
REMARK  215  A    between atoms: _520  and  _521
REMARK  216  A    between atoms: _524  and  _526
REMARK  217  A    between atoms: _526  and  _527
REMARK  218  A    between atoms: _526  and  _529
REMARK  219  A    between atoms: _529  and  _530
REMARK  220  A    between atoms: _530  and  _531
REMARK  221  A    between atoms: _531  and  _532
REMARK  222  A    between atoms: _541  and  _543
REMARK  223  A    between atoms: _543  and  _544
REMARK  224  A    between atoms: _543  and  _546
REMARK  225  A    between atoms: _546  and  _547
REMARK  226  A    between atoms: _550  and  _552
REMARK  227  A    between atoms: _552  and  _553
REMARK  228  A    between atoms: _552  and  _555
REMARK  229  A    between atoms: _555  and  _556
REMARK  230  A    between atoms: _561  and  _563
REMARK  231  A    between atoms: _563  and  _564
REMARK  232  A    between atoms: _563  and  _566
REMARK  233  A    between atoms: _566  and  _567
REMARK  234  A    between atoms: _567  and  _568
REMARK  235  A    between atoms: _568  and  _569
REMARK  236  A    between atoms: _578  and  _580
REMARK  237  A    between atoms: _580  and  _581
REMARK  238  A    between atoms: _580  and  _583
REMARK  239  A    between atoms: _583  and  _584
REMARK  240  A    between atoms: _584  and  _585
REMARK  241  A    between atoms: _587  and  _589
REMARK  242  A    between atoms: _589  and  _590
REMARK  243  A    between atoms: _589  and  _592
REMARK  244  A    between atoms: _592  and  _593
REMARK  245  A    between atoms: _593  and  _594
REMARK  246  A    between atoms: _596  and  _598
REMARK  247  A    between atoms: _598  and  _599
REMARK  248  A    between atoms: _598  and  _601
REMARK  249  A    between atoms: _601  and  _602
REMARK  250  A    between atoms: _602  and  _603
REMARK  251  A    between atoms: _603  and  _604
REMARK  252  A    between atoms: _604  and  _605
REMARK  253  A    between atoms: _609  and  _611
REMARK  254  A    between atoms: _611  and  _612
REMARK  255  A    between atoms: _611  and  _614
REMARK  256  A    between atoms: _614  and  _615
REMARK                            x       y       z     vdW  Elec       q    Type
REMARK                         _______ _______ _______ _____ _____    ______ ____
ROOT
ATOM      1  O   HOH     1      49.469   2.366  31.281  0.00  0.00    +0.000 OA
ENDROOT
TORSDOF 0
REMARK  Name = ../refined-set-2016/1x8r/1x8r_pocket.pdb
REMARK  256 active torsions:
REMARK  status: ('A' for Active; 'I' for Inactive)
REMARK    1  A    between atoms: _1  and  _3
REMARK    2  A    between atoms: _3  and  _4
REMARK    3  A    between atoms: _3  and  _6
REMARK    4  A    between atoms: _6  and  _7
REMARK    5  A    between atoms: _9  and  _11
REMARK    6  A    between atoms: _11  and  _12
REMARK    7  A    between atoms: _11  and  _14
REMARK    8  A    between atoms: _14  and  _15
REMARK    9  A    between atoms: _15  and  _16
REMARK   10  A    between atoms: _16  and  _17
REMARK   11  A    between atoms: _17  and  _18
REMARK   12  A    between atoms: _22  and  _24
REMARK   13  A    between atoms: _24  and  _25
REMARK   14  A    between atoms: _24  and  _27
REMARK   15  A    between atoms: _27  and  _28
REMARK   16  A    between atoms: _30  and  _32
REMARK   17  A    between atoms: _32  and  _33
REMARK   18  A    between atoms: _32  and  _35
REMARK   19  A    between atoms: _38  and  _40
REMARK   20  A    between atoms: _40  and  _41
REMARK   21  A    between atoms: _40  and  _43
REMARK   22  A    between atoms: _43  and  _44
REMARK   23  A    between atoms: _46  and  _48
REMARK   24  A    between atoms: _48  and  _49
REMARK   25  A    between atoms: _48  and  _51
REMARK   26  A    between atoms: _51  and  _52
REMARK   27  A    between atoms: _57  and  _59
REMARK   28  A    between atoms: _59  and  _60
REMARK   29  A    between atoms: _59  and  _62
REMARK   30  A    between atoms: _62  and  _63
REMARK   31  A    between atoms: _63  and  _64
REMARK   32  A    between atoms: _64  and  _65
REMARK   33  A    between atoms: _74  and  _76
REMARK   34  A    between atoms: _76  and  _77
REMARK   35  A    between atoms: _76  and  _79
REMARK   36  A    between atoms: _79  and  _80
REMARK   37  A    between atoms: _83  and  _85
REMARK   38  A    between atoms: _85  and  _86
REMARK   39  A    between atoms: _85  and  _88
REMARK   40  A    between atoms: _88  and  _89
REMARK   41  A    between atoms: _94  and  _96
REMARK   42  A    between atoms: _96  and  _97
REMARK   43  A    between atoms: _100  and  _102
REMARK   44  A    between atoms: _102  and  _103
REMARK   45  A    between atoms: _105  and  _107
REMARK   46  A    between atoms: _107  and  _108
REMARK   47  A    between atoms: _107  and  _110
REMARK   48  A    between atoms: _110  and  _111
REMARK   49  A    between atoms: _114  and  _116
REMARK   50  A    between atoms: _116  and  _117
REMARK   51  A    between atoms: _120  and  _122
REMARK   52  A    between atoms: _122  and  _123
REMARK   53  A    between atoms: _122  and  _125
REMARK   54  A    between atoms: _125  and  _126
REMARK   55  A    between atoms: _126  and  _127
REMARK   56  A    between atoms: _129  and  _131
REMARK   57  A    between atoms: _131  and  _132
REMARK   58  A    between atoms: _131  and  _134
REMARK   59  A    between atoms: _134  and  _135
REMARK   60  A    between atoms: _135  and  _136
REMARK   61  A    between atoms: _136  and  _137
REMARK   62  A    between atoms: _147  and  _148
REMARK   63  A    between atoms: _153  and  _155
REMARK   64  A    between atoms: _155  and  _156
REMARK   65  A    between atoms: _155  and  _158
REMARK   66  A    between atoms: _158  and  _159
REMARK   67  A    between atoms: _159  and  _160
REMARK   68  A    between atoms: _162  and  _164
REMARK   69  A    between atoms: _164  and  _165
REMARK   70  A    between atoms: _164  and  _167
REMARK   71  A    between atoms: _167  and  _168
REMARK   72  A    between atoms: _168  and  _169
REMARK   73  A    between atoms: _169  and  _170
REMARK   74  A    between atoms: _180  and  _181
REMARK   75  A    between atoms: _186  and  _188
REMARK   76  A    between atoms: _188  and  _189
REMARK   77  A    between atoms: _191  and  _193
REMARK   78  A    between atoms: _193  and  _194
REMARK   79  A    between atoms: _193  and  _196
REMARK   80  A    between atoms: _196  and  _197
REMARK   81  A    between atoms: _199  and  _201
REMARK   82  A    between atoms: _201  and  _202
REMARK   83  A    between atoms: _201  and  _204
REMARK   84  A    between atoms: _207  and  _209
REMARK   85  A    between atoms: _209  and  _210
REMARK   86  A    between atoms: _209  and  _212
REMARK   87  A    between atoms: _212  and  _213
REMARK   88  A    between atoms: _215  and  _217
REMARK   89  A    between atoms: _217  and  _218
REMARK   90  A    between atoms: _217  and  _220
REMARK   91  A    between atoms: _220  and  _221
REMARK   92  A    between atoms: _223  and  _225
REMARK   93  A    between atoms: _225  and  _226
REMARK   94  A    between atoms: _225  and  _228
REMARK   95  A    between atoms: _228  and  _229
REMARK   96  A    between atoms: _229  and  _230
REMARK   97  A    between atoms: _235  and  _237
REMARK   98  A    between atoms: _237  and  _238
REMARK   99  A    between atoms: _237  and  _240
REMARK  100  A    between atoms: _240  and  _241
REMARK  101  A    between atoms: _247  and  _249
REMARK  102  A    between atoms: _249  and  _250
REMARK  103  A    between atoms: _249  and  _252
REMARK  104  A    between atoms: _252  and  _253
REMARK  105  A    between atoms: _256  and  _258
REMARK  106  A    between atoms: _258  and  _259
REMARK  107  A    between atoms: _258  and  _261
REMARK  108  A    between atoms: _261  and  _262
REMARK  109  A    between atoms: _265  and  _267
REMARK  110  A    between atoms: _267  and  _268
REMARK  111  A    between atoms: _271  and  _273
REMARK  112  A    between atoms: _273  and  _274
REMARK  113  A    between atoms: _273  and  _276
REMARK  114  A    between atoms: _276  and  _277
REMARK  115  A    between atoms: _277  and  _278
REMARK  116  A    between atoms: _280  and  _282
REMARK  117  A    between atoms: _282  and  _283
REMARK  118  A    between atoms: _282  and  _285
REMARK  119  A    between atoms: _285  and  _286
REMARK  120  A    between atoms: _289  and  _291
REMARK  121  A    between atoms: _291  and  _292
REMARK  122  A    between atoms: _291  and  _294
REMARK  123  A    between atoms: _297  and  _299
REMARK  124  A    between atoms: _299  and  _300
REMARK  125  A    between atoms: _299  and  _302
REMARK  126  A    between atoms: _302  and  _303
REMARK  127  A    between atoms: _305  and  _307
REMARK  128  A    between atoms: _307  and  _308
REMARK  129  A    between atoms: _307  and  _310
REMARK  130  A    between atoms: _310  and  _311
REMARK  131  A    between atoms: _311  and  _312
REMARK  132  A    between atoms: _312  and  _313
REMARK  133  A    between atoms: _313  and  _314
REMARK  134  A    between atoms: _319  and  _320
REMARK  135  A    between atoms: _325  and  _327
REMARK  136  A    between atoms: _327  and  _328
REMARK  137  A    between atoms: _327  and  _330
REMARK  138  A    between atoms: _330  and  _331
REMARK  139  A    between atoms: _336  and  _337
REMARK  140  A    between atoms: _339  and  _341
REMARK  141  A    between atoms: _341  and  _342
REMARK  142  A    between atoms: _341  and  _344
REMARK  143  A    between atoms: _344  and  _345
REMARK  144  A    between atoms: _348  and  _350
REMARK  145  A    between atoms: _350  and  _351
REMARK  146  A    between atoms: _350  and  _353
REMARK  147  A    between atoms: _353  and  _354
REMARK  148  A    between atoms: _357  and  _359
REMARK  149  A    between atoms: _359  and  _360
REMARK  150  A    between atoms: _359  and  _362
REMARK  151  A    between atoms: _362  and  _363
REMARK  152  A    between atoms: _366  and  _368
REMARK  153  A    between atoms: _368  and  _369
REMARK  154  A    between atoms: _368  and  _371
REMARK  155  A    between atoms: _371  and  _372
REMARK  156  A    between atoms: _375  and  _377
REMARK  157  A    between atoms: _377  and  _378
REMARK  158  A    between atoms: _377  and  _380
REMARK  159  A    between atoms: _380  and  _381
REMARK  160  A    between atoms: _383  and  _385
REMARK  161  A    between atoms: _385  and  _386
REMARK  162  A    between atoms: _385  and  _388
REMARK  163  A    between atoms: _388  and  _389
REMARK  164  A    between atoms: _394  and  _395
REMARK  165  A    between atoms: _397  and  _399
REMARK  166  A    between atoms: _399  and  _400
REMARK  167  A    between atoms: _399  and  _402
REMARK  168  A    between atoms: _402  and  _403
REMARK  169  A    between atoms: _406  and  _408
REMARK  170  A    between atoms: _408  and  _409
REMARK  171  A    between atoms: _408  and  _411
REMARK  172  A    between atoms: _411  and  _412
REMARK  173  A    between atoms: _417  and  _419
REMARK  174  A    between atoms: _419  and  _420
REMARK  175  A    between atoms: _419  and  _422
REMARK  176  A    between atoms: _422  and  _423
REMARK  177  A    between atoms: _427  and  _428
REMARK  178  A    between atoms: _433  and  _435
REMARK  179  A    between atoms: _435  and  _436
REMARK  180  A    between atoms: _435  and  _438
REMARK  181  A    between atoms: _438  and  _439
REMARK  182  A    between atoms: _442  and  _444
REMARK  183  A    between atoms: _444  and  _445
REMARK  184  A    between atoms: _448  and  _450
REMARK  185  A    between atoms: _450  and  _451
REMARK  186  A    between atoms: _450  and  _453
REMARK  187  A    between atoms: _453  and  _454
REMARK  188  A    between atoms: _454  and  _455
REMARK  189  A    between atoms: _457  and  _459
REMARK  190  A    between atoms: _459  and  _460
REMARK  191  A    between atoms: _459  and  _462
REMARK  192  A    between atoms: _462  and  _463
REMARK  193  A    between atoms: _468  and  _470
REMARK  194  A    between atoms: _470  and  _471
REMARK  195  A    between atoms: _470  and  _473
REMARK  196  A    between atoms: _473  and  _474
REMARK  197  A    between atoms: _484  and  _486
REMARK  198  A    between atoms: _486  and  _487
REMARK  199  A    between atoms: _486  and  _489
REMARK  200  A    between atoms: _492  and  _494
REMARK  201  A    between atoms: _494  and  _495
REMARK  202  A    between atoms: _494  and  _497
REMARK  203  A    between atoms: _497  and  _498
REMARK  204  A    between atoms: _498  and  _499
REMARK  205  A    between atoms: _499  and  _500
REMARK  206  A    between atoms: _500  and  _501
REMARK  207  A    between atoms: _505  and  _507
REMARK  208  A    between atoms: _507  and  _508
REMARK  209  A    between atoms: _507  and  _510
REMARK  210  A    between atoms: _510  and  _511
REMARK  211  A    between atoms: _511  and  _512
REMARK  212  A    between atoms: _515  and  _517
REMARK  213  A    between atoms: _517  and  _518
REMARK  214  A    between atoms: _517  and  _520
REMARK  215  A    between atoms: _520  and  _521
REMARK  216  A    between atoms: _524  and  _526
REMARK  217  A    between atoms: _526  and  _527
REMARK  218  A    between atoms: _526  and  _529
REMARK  219  A    between atoms: _529  and  _530
REMARK  220  A    between atoms: _530  and  _531
REMARK  221  A    between atoms: _531  and  _532
REMARK  222  A    between atoms: _541  and  _543
REMARK  223  A    between atoms: _543  and  _544
REMARK  224  A    between atoms: _543  and  _546
REMARK  225  A    between atoms: _546  and  _547
REMARK  226  A    between atoms: _550  and  _552
REMARK  227  A    between atoms: _552  and  _553
REMARK  228  A    between atoms: _552  and  _555
REMARK  229  A    between atoms: _555  and  _556
REMARK  230  A    between atoms: _561  and  _563
REMARK  231  A    between atoms: _563  and  _564
REMARK  232  A    between atoms: _563  and  _566
REMARK  233  A    between atoms: _566  and  _567
REMARK  234  A    between atoms: _567  and  _568
REMARK  235  A    between atoms: _568  and  _569
REMARK  236  A    between atoms: _578  and  _580
REMARK  237  A    between atoms: _580  and  _581
REMARK  238  A    between atoms: _580  and  _583
REMARK  239  A    between atoms: _583  and  _584
REMARK  240  A    between atoms: _584  and  _585
REMARK  241  A    between atoms: _587  and  _589
REMARK  242  A    between atoms: _589  and  _590
REMARK  243  A    between atoms: _589  and  _592
REMARK  244  A    between atoms: _592  and  _593
REMARK  245  A    between atoms: _593  and  _594
REMARK  246  A    between atoms: _596  and  _598
REMARK  247  A    between atoms: _598  and  _599
REMARK  248  A    between atoms: _598  and  _601
REMARK  249  A    between atoms: _601  and  _602
REMARK  250  A    between atoms: _602  and  _603
REMARK  251  A    between atoms: _603  and  _604
REMARK  252  A    between atoms: _604  and  _605
REMARK  253  A    between atoms: _609  and  _611
REMARK  254  A    between atoms: _611  and  _612
REMARK  255  A    between atoms: _611  and  _614
REMARK  256  A    between atoms: _614  and  _615
REMARK                            x       y       z     vdW  Elec       q    Type
REMARK                         _______ _______ _______ _____ _____    ______ ____
ROOT
ATOM      1  O   HOH     1      56.739   6.980  26.042  0.00  0.00    +0.000 OA
ENDROOT
TORSDOF 0
REMARK  Name = ../refined-set-2016/1x8r/1x8r_pocket.pdb
REMARK  256 active torsions:
REMARK  status: ('A' for Active; 'I' for Inactive)
REMARK    1  A    between atoms: _1  and  _3
REMARK    2  A    between atoms: _3  and  _4
REMARK    3  A    between atoms: _3  and  _6
REMARK    4  A    between atoms: _6  and  _7
REMARK    5  A    between atoms: _9  and  _11
REMARK    6  A    between atoms: _11  and  _12
REMARK    7  A    between atoms: _11  and  _14
REMARK    8  A    between atoms: _14  and  _15
REMARK    9  A    between atoms: _15  and  _16
REMARK   10  A    between atoms: _16  and  _17
REMARK   11  A    between atoms: _17  and  _18
REMARK   12  A    between atoms: _22  and  _24
REMARK   13  A    between atoms: _24  and  _25
REMARK   14  A    between atoms: _24  and  _27
REMARK   15  A    between atoms: _27  and  _28
REMARK   16  A    between atoms: _30  and  _32
REMARK   17  A    between atoms: _32  and  _33
REMARK   18  A    between atoms: _32  and  _35
REMARK   19  A    between atoms: _38  and  _40
REMARK   20  A    between atoms: _40  and  _41
REMARK   21  A    between atoms: _40  and  _43
REMARK   22  A    between atoms: _43  and  _44
REMARK   23  A    between atoms: _46  and  _48
REMARK   24  A    between atoms: _48  and  _49
REMARK   25  A    between atoms: _48  and  _51
REMARK   26  A    between atoms: _51  and  _52
REMARK   27  A    between atoms: _57  and  _59
REMARK   28  A    between atoms: _59  and  _60
REMARK   29  A    between atoms: _59  and  _62
REMARK   30  A    between atoms: _62  and  _63
REMARK   31  A    between atoms: _63  and  _64
REMARK   32  A    between atoms: _64  and  _65
REMARK   33  A    between atoms: _74  and  _76
REMARK   34  A    between atoms: _76  and  _77
REMARK   35  A    between atoms: _76  and  _79
REMARK   36  A    between atoms: _79  and  _80
REMARK   37  A    between atoms: _83  and  _85
REMARK   38  A    between atoms: _85  and  _86
REMARK   39  A    between atoms: _85  and  _88
REMARK   40  A    between atoms: _88  and  _89
REMARK   41  A    between atoms: _94  and  _96
REMARK   42  A    between atoms: _96  and  _97
REMARK   43  A    between atoms: _100  and  _102
REMARK   44  A    between atoms: _102  and  _103
REMARK   45  A    between atoms: _105  and  _107
REMARK   46  A    between atoms: _107  and  _108
REMARK   47  A    between atoms: _107  and  _110
REMARK   48  A    between atoms: _110  and  _111
REMARK   49  A    between atoms: _114  and  _116
REMARK   50  A    between atoms: _116  and  _117
REMARK   51  A    between atoms: _120  and  _122
REMARK   52  A    between atoms: _122  and  _123
REMARK   53  A    between atoms: _122  and  _125
REMARK   54  A    between atoms: _125  and  _126
REMARK   55  A    between atoms: _126  and  _127
REMARK   56  A    between atoms: _129  and  _131
REMARK   57  A    between atoms: _131  and  _132
REMARK   58  A    between atoms: _131  and  _134
REMARK   59  A    between atoms: _134  and  _135
REMARK   60  A    between atoms: _135  and  _136
REMARK   61  A    between atoms: _136  and  _137
REMARK   62  A    between atoms: _147  and  _148
REMARK   63  A    between atoms: _153  and  _155
REMARK   64  A    between atoms: _155  and  _156
REMARK   65  A    between atoms: _155  and  _158
REMARK   66  A    between atoms: _158  and  _159
REMARK   67  A    between atoms: _159  and  _160
REMARK   68  A    between atoms: _162  and  _164
REMARK   69  A    between atoms: _164  and  _165
REMARK   70  A    between atoms: _164  and  _167
REMARK   71  A    between atoms: _167  and  _168
REMARK   72  A    between atoms: _168  and  _169
REMARK   73  A    between atoms: _169  and  _170
REMARK   74  A    between atoms: _180  and  _181
REMARK   75  A    between atoms: _186  and  _188
REMARK   76  A    between atoms: _188  and  _189
REMARK   77  A    between atoms: _191  and  _193
REMARK   78  A    between atoms: _193  and  _194
REMARK   79  A    between atoms: _193  and  _196
REMARK   80  A    between atoms: _196  and  _197
REMARK   81  A    between atoms: _199  and  _201
REMARK   82  A    between atoms: _201  and  _202
REMARK   83  A    between atoms: _201  and  _204
REMARK   84  A    between atoms: _207  and  _209
REMARK   85  A    between atoms: _209  and  _210
REMARK   86  A    between atoms: _209  and  _212
REMARK   87  A    between atoms: _212  and  _213
REMARK   88  A    between atoms: _215  and  _217
REMARK   89  A    between atoms: _217  and  _218
REMARK   90  A    between atoms: _217  and  _220
REMARK   91  A    between atoms: _220  and  _221
REMARK   92  A    between atoms: _223  and  _225
REMARK   93  A    between atoms: _225  and  _226
REMARK   94  A    between atoms: _225  and  _228
REMARK   95  A    between atoms: _228  and  _229
REMARK   96  A    between atoms: _229  and  _230
REMARK   97  A    between atoms: _235  and  _237
REMARK   98  A    between atoms: _237  and  _238
REMARK   99  A    between atoms: _237  and  _240
REMARK  100  A    between atoms: _240  and  _241
REMARK  101  A    between atoms: _247  and  _249
REMARK  102  A    between atoms: _249  and  _250
REMARK  103  A    between atoms: _249  and  _252
REMARK  104  A    between atoms: _252  and  _253
REMARK  105  A    between atoms: _256  and  _258
REMARK  106  A    between atoms: _258  and  _259
REMARK  107  A    between atoms: _258  and  _261
REMARK  108  A    between atoms: _261  and  _262
REMARK  109  A    between atoms: _265  and  _267
REMARK  110  A    between atoms: _267  and  _268
REMARK  111  A    between atoms: _271  and  _273
REMARK  112  A    between atoms: _273  and  _274
REMARK  113  A    between atoms: _273  and  _276
REMARK  114  A    between atoms: _276  and  _277
REMARK  115  A    between atoms: _277  and  _278
REMARK  116  A    between atoms: _280  and  _282
REMARK  117  A    between atoms: _282  and  _283
REMARK  118  A    between atoms: _282  and  _285
REMARK  119  A    between atoms: _285  and  _286
REMARK  120  A    between atoms: _289  and  _291
REMARK  121  A    between atoms: _291  and  _292
REMARK  122  A    between atoms: _291  and  _294
REMARK  123  A    between atoms: _297  and  _299
REMARK  124  A    between atoms: _299  and  _300
REMARK  125  A    between atoms: _299  and  _302
REMARK  126  A    between atoms: _302  and  _303
REMARK  127  A    between atoms: _305  and  _307
REMARK  128  A    between atoms: _307  and  _308
REMARK  129  A    between atoms: _307  and  _310
REMARK  130  A    between atoms: _310  and  _311
REMARK  131  A    between atoms: _311  and  _312
REMARK  132  A    between atoms: _312  and  _313
REMARK  133  A    between atoms: _313  and  _314
REMARK  134  A    between atoms: _319  and  _320
REMARK  135  A    between atoms: _325  and  _327
REMARK  136  A    between atoms: _327  and  _328
REMARK  137  A    between atoms: _327  and  _330
REMARK  138  A    between atoms: _330  and  _331
REMARK  139  A    between atoms: _336  and  _337
REMARK  140  A    between atoms: _339  and  _341
REMARK  141  A    between atoms: _341  and  _342
REMARK  142  A    between atoms: _341  and  _344
REMARK  143  A    between atoms: _344  and  _345
REMARK  144  A    between atoms: _348  and  _350
REMARK  145  A    between atoms: _350  and  _351
REMARK  146  A    between atoms: _350  and  _353
REMARK  147  A    between atoms: _353  and  _354
REMARK  148  A    between atoms: _357  and  _359
REMARK  149  A    between atoms: _359  and  _360
REMARK  150  A    between atoms: _359  and  _362
REMARK  151  A    between atoms: _362  and  _363
REMARK  152  A    between atoms: _366  and  _368
REMARK  153  A    between atoms: _368  and  _369
REMARK  154  A    between atoms: _368  and  _371
REMARK  155  A    between atoms: _371  and  _372
REMARK  156  A    between atoms: _375  and  _377
REMARK  157  A    between atoms: _377  and  _378
REMARK  158  A    between atoms: _377  and  _380
REMARK  159  A    between atoms: _380  and  _381
REMARK  160  A    between atoms: _383  and  _385
REMARK  161  A    between atoms: _385  and  _386
REMARK  162  A    between atoms: _385  and  _388
REMARK  163  A    between atoms: _388  and  _389
REMARK  164  A    between atoms: _394  and  _395
REMARK  165  A    between atoms: _397  and  _399
REMARK  166  A    between atoms: _399  and  _400
REMARK  167  A    between atoms: _399  and  _402
REMARK  168  A    between atoms: _402  and  _403
REMARK  169  A    between atoms: _406  and  _408
REMARK  170  A    between atoms: _408  and  _409
REMARK  171  A    between atoms: _408  and  _411
REMARK  172  A    between atoms: _411  and  _412
REMARK  173  A    between atoms: _417  and  _419
REMARK  174  A    between atoms: _419  and  _420
REMARK  175  A    between atoms: _419  and  _422
REMARK  176  A    between atoms: _422  and  _423
REMARK  177  A    between atoms: _427  and  _428
REMARK  178  A    between atoms: _433  and  _435
REMARK  179  A    between atoms: _435  and  _436
REMARK  180  A    between atoms: _435  and  _438
REMARK  181  A    between atoms: _438  and  _439
REMARK  182  A    between atoms: _442  and  _444
REMARK  183  A    between atoms: _444  and  _445
REMARK  184  A    between atoms: _448  and  _450
REMARK  185  A    between atoms: _450  and  _451
REMARK  186  A    between atoms: _450  and  _453
REMARK  187  A    between atoms: _453  and  _454
REMARK  188  A    between atoms: _454  and  _455
REMARK  189  A    between atoms: _457  and  _459
REMARK  190  A    between atoms: _459  and  _460
REMARK  191  A    between atoms: _459  and  _462
REMARK  192  A    between atoms: _462  and  _463
REMARK  193  A    between atoms: _468  and  _470
REMARK  194  A    between atoms: _470  and  _471
REMARK  195  A    between atoms: _470  and  _473
REMARK  196  A    between atoms: _473  and  _474
REMARK  197  A    between atoms: _484  and  _486
REMARK  198  A    between atoms: _486  and  _487
REMARK  199  A    between atoms: _486  and  _489
REMARK  200  A    between atoms: _492  and  _494
REMARK  201  A    between atoms: _494  and  _495
REMARK  202  A    between atoms: _494  and  _497
REMARK  203  A    between atoms: _497  and  _498
REMARK  204  A    between atoms: _498  and  _499
REMARK  205  A    between atoms: _499  and  _500
REMARK  206  A    between atoms: _500  and  _501
REMARK  207  A    between atoms: _505  and  _507
REMARK  208  A    between atoms: _507  and  _508
REMARK  209  A    between atoms: _507  and  _510
REMARK  210  A    between atoms: _510  and  _511
REMARK  211  A    between atoms: _511  and  _512
REMARK  212  A    between atoms: _515  and  _517
REMARK  213  A    between atoms: _517  and  _518
REMARK  214  A    between atoms: _517  and  _520
REMARK  215  A    between atoms: _520  and  _521
REMARK  216  A    between atoms: _524  and  _526
REMARK  217  A    between atoms: _526  and  _527
REMARK  218  A    between atoms: _526  and  _529
REMARK  219  A    between atoms: _529  and  _530
REMARK  220  A    between atoms: _530  and  _531
REMARK  221  A    between atoms: _531  and  _532
REMARK  222  A    between atoms: _541  and  _543
REMARK  223  A    between atoms: _543  and  _544
REMARK  224  A    between atoms: _543  and  _546
REMARK  225  A    between atoms: _546  and  _547
REMARK  226  A    between atoms: _550  and  _552
REMARK  227  A    between atoms: _552  and  _553
REMARK  228  A    between atoms: _552  and  _555
REMARK  229  A    between atoms: _555  and  _556
REMARK  230  A    between atoms: _561  and  _563
REMARK  231  A    between atoms: _563  and  _564
REMARK  232  A    between atoms: _563  and  _566
REMARK  233  A    between atoms: _566  and  _567
REMARK  234  A    between atoms: _567  and  _568
REMARK  235  A    between atoms: _568  and  _569
REMARK  236  A    between atoms: _578  and  _580
REMARK  237  A    between atoms: _580  and  _581
REMARK  238  A    between atoms: _580  and  _583
REMARK  239  A    between atoms: _583  and  _584
REMARK  240  A    between atoms: _584  and  _585
REMARK  241  A    between atoms: _587  and  _589
REMARK  242  A    between atoms: _589  and  _590
REMARK  243  A    between atoms: _589  and  _592
REMARK  244  A    between atoms: _592  and  _593
REMARK  245  A    between atoms: _593  and  _594
REMARK  246  A    between atoms: _596  and  _598
REMARK  247  A    between atoms: _598  and  _599
REMARK  248  A    between atoms: _598  and  _601
REMARK  249  A    between atoms: _601  and  _602
REMARK  250  A    between atoms: _602  and  _603
REMARK  251  A    between atoms: _603  and  _604
REMARK  252  A    between atoms: _604  and  _605
REMARK  253  A    between atoms: _609  and  _611
REMARK  254  A    between atoms: _611  and  _612
REMARK  255  A    between atoms: _611  and  _614
REMARK  256  A    between atoms: _614  and  _615
REMARK                            x       y       z     vdW  Elec       q    Type
REMARK                         _______ _______ _______ _____ _____    ______ ____
ROOT
ATOM      1  O   HOH     1      59.100  17.413  20.499  0.00  0.00    +0.000 OA
ENDROOT
TORSDOF 0
REMARK  Name = ../refined-set-2016/1x8r/1x8r_pocket.pdb
REMARK  256 active torsions:
REMARK  status: ('A' for Active; 'I' for Inactive)
REMARK    1  A    between atoms: _1  and  _3
REMARK    2  A    between atoms: _3  and  _4
REMARK    3  A    between atoms: _3  and  _6
REMARK    4  A    between atoms: _6  and  _7
REMARK    5  A    between atoms: _9  and  _11
REMARK    6  A    between atoms: _11  and  _12
REMARK    7  A    between atoms: _11  and  _14
REMARK    8  A    between atoms: _14  and  _15
REMARK    9  A    between atoms: _15  and  _16
REMARK   10  A    between atoms: _16  and  _17
REMARK   11  A    between atoms: _17  and  _18
REMARK   12  A    between atoms: _22  and  _24
REMARK   13  A    between atoms: _24  and  _25
REMARK   14  A    between atoms: _24  and  _27
REMARK   15  A    between atoms: _27  and  _28
REMARK   16  A    between atoms: _30  and  _32
REMARK   17  A    between atoms: _32  and  _33
REMARK   18  A    between atoms: _32  and  _35
REMARK   19  A    between atoms: _38  and  _40
REMARK   20  A    between atoms: _40  and  _41
REMARK   21  A    between atoms: _40  and  _43
REMARK   22  A    between atoms: _43  and  _44
REMARK   23  A    between atoms: _46  and  _48
REMARK   24  A    between atoms: _48  and  _49
REMARK   25  A    between atoms: _48  and  _51
REMARK   26  A    between atoms: _51  and  _52
REMARK   27  A    between atoms: _57  and  _59
REMARK   28  A    between atoms: _59  and  _60
REMARK   29  A    between atoms: _59  and  _62
REMARK   30  A    between atoms: _62  and  _63
REMARK   31  A    between atoms: _63  and  _64
REMARK   32  A    between atoms: _64  and  _65
REMARK   33  A    between atoms: _74  and  _76
REMARK   34  A    between atoms: _76  and  _77
REMARK   35  A    between atoms: _76  and  _79
REMARK   36  A    between atoms: _79  and  _80
REMARK   37  A    between atoms: _83  and  _85
REMARK   38  A    between atoms: _85  and  _86
REMARK   39  A    between atoms: _85  and  _88
REMARK   40  A    between atoms: _88  and  _89
REMARK   41  A    between atoms: _94  and  _96
REMARK   42  A    between atoms: _96  and  _97
REMARK   43  A    between atoms: _100  and  _102
REMARK   44  A    between atoms: _102  and  _103
REMARK   45  A    between atoms: _105  and  _107
REMARK   46  A    between atoms: _107  and  _108
REMARK   47  A    between atoms: _107  and  _110
REMARK   48  A    between atoms: _110  and  _111
REMARK   49  A    between atoms: _114  and  _116
REMARK   50  A    between atoms: _116  and  _117
REMARK   51  A    between atoms: _120  and  _122
REMARK   52  A    between atoms: _122  and  _123
REMARK   53  A    between atoms: _122  and  _125
REMARK   54  A    between atoms: _125  and  _126
REMARK   55  A    between atoms: _126  and  _127
REMARK   56  A    between atoms: _129  and  _131
REMARK   57  A    between atoms: _131  and  _132
REMARK   58  A    between atoms: _131  and  _134
REMARK   59  A    between atoms: _134  and  _135
REMARK   60  A    between atoms: _135  and  _136
REMARK   61  A    between atoms: _136  and  _137
REMARK   62  A    between atoms: _147  and  _148
REMARK   63  A    between atoms: _153  and  _155
REMARK   64  A    between atoms: _155  and  _156
REMARK   65  A    between atoms: _155  and  _158
REMARK   66  A    between atoms: _158  and  _159
REMARK   67  A    between atoms: _159  and  _160
REMARK   68  A    between atoms: _162  and  _164
REMARK   69  A    between atoms: _164  and  _165
REMARK   70  A    between atoms: _164  and  _167
REMARK   71  A    between atoms: _167  and  _168
REMARK   72  A    between atoms: _168  and  _169
REMARK   73  A    between atoms: _169  and  _170
REMARK   74  A    between atoms: _180  and  _181
REMARK   75  A    between atoms: _186  and  _188
REMARK   76  A    between atoms: _188  and  _189
REMARK   77  A    between atoms: _191  and  _193
REMARK   78  A    between atoms: _193  and  _194
REMARK   79  A    between atoms: _193  and  _196
REMARK   80  A    between atoms: _196  and  _197
REMARK   81  A    between atoms: _199  and  _201
REMARK   82  A    between atoms: _201  and  _202
REMARK   83  A    between atoms: _201  and  _204
REMARK   84  A    between atoms: _207  and  _209
REMARK   85  A    between atoms: _209  and  _210
REMARK   86  A    between atoms: _209  and  _212
REMARK   87  A    between atoms: _212  and  _213
REMARK   88  A    between atoms: _215  and  _217
REMARK   89  A    between atoms: _217  and  _218
REMARK   90  A    between atoms: _217  and  _220
REMARK   91  A    between atoms: _220  and  _221
REMARK   92  A    between atoms: _223  and  _225
REMARK   93  A    between atoms: _225  and  _226
REMARK   94  A    between atoms: _225  and  _228
REMARK   95  A    between atoms: _228  and  _229
REMARK   96  A    between atoms: _229  and  _230
REMARK   97  A    between atoms: _235  and  _237
REMARK   98  A    between atoms: _237  and  _238
REMARK   99  A    between atoms: _237  and  _240
REMARK  100  A    between atoms: _240  and  _241
REMARK  101  A    between atoms: _247  and  _249
REMARK  102  A    between atoms: _249  and  _250
REMARK  103  A    between atoms: _249  and  _252
REMARK  104  A    between atoms: _252  and  _253
REMARK  105  A    between atoms: _256  and  _258
REMARK  106  A    between atoms: _258  and  _259
REMARK  107  A    between atoms: _258  and  _261
REMARK  108  A    between atoms: _261  and  _262
REMARK  109  A    between atoms: _265  and  _267
REMARK  110  A    between atoms: _267  and  _268
REMARK  111  A    between atoms: _271  and  _273
REMARK  112  A    between atoms: _273  and  _274
REMARK  113  A    between atoms: _273  and  _276
REMARK  114  A    between atoms: _276  and  _277
REMARK  115  A    between atoms: _277  and  _278
REMARK  116  A    between atoms: _280  and  _282
REMARK  117  A    between atoms: _282  and  _283
REMARK  118  A    between atoms: _282  and  _285
REMARK  119  A    between atoms: _285  and  _286
REMARK  120  A    between atoms: _289  and  _291
REMARK  121  A    between atoms: _291  and  _292
REMARK  122  A    between atoms: _291  and  _294
REMARK  123  A    between atoms: _297  and  _299
REMARK  124  A    between atoms: _299  and  _300
REMARK  125  A    between atoms: _299  and  _302
REMARK  126  A    between atoms: _302  and  _303
REMARK  127  A    between atoms: _305  and  _307
REMARK  128  A    between atoms: _307  and  _308
REMARK  129  A    between atoms: _307  and  _310
REMARK  130  A    between atoms: _310  and  _311
REMARK  131  A    between atoms: _311  and  _312
REMARK  132  A    between atoms: _312  and  _313
REMARK  133  A    between atoms: _313  and  _314
REMARK  134  A    between atoms: _319  and  _320
REMARK  135  A    between atoms: _325  and  _327
REMARK  136  A    between atoms: _327  and  _328
REMARK  137  A    between atoms: _327  and  _330
REMARK  138  A    between atoms: _330  and  _331
REMARK  139  A    between atoms: _336  and  _337
REMARK  140  A    between atoms: _339  and  _341
REMARK  141  A    between atoms: _341  and  _342
REMARK  142  A    between atoms: _341  and  _344
REMARK  143  A    between atoms: _344  and  _345
REMARK  144  A    between atoms: _348  and  _350
REMARK  145  A    between atoms: _350  and  _351
REMARK  146  A    between atoms: _350  and  _353
REMARK  147  A    between atoms: _353  and  _354
REMARK  148  A    between atoms: _357  and  _359
REMARK  149  A    between atoms: _359  and  _360
REMARK  150  A    between atoms: _359  and  _362
REMARK  151  A    between atoms: _362  and  _363
REMARK  152  A    between atoms: _366  and  _368
REMARK  153  A    between atoms: _368  and  _369
REMARK  154  A    between atoms: _368  and  _371
REMARK  155  A    between atoms: _371  and  _372
REMARK  156  A    between atoms: _375  and  _377
REMARK  157  A    between atoms: _377  and  _378
REMARK  158  A    between atoms: _377  and  _380
REMARK  159  A    between atoms: _380  and  _381
REMARK  160  A    between atoms: _383  and  _385
REMARK  161  A    between atoms: _385  and  _386
REMARK  162  A    between atoms: _385  and  _388
REMARK  163  A    between atoms: _388  and  _389
REMARK  164  A    between atoms: _394  and  _395
REMARK  165  A    between atoms: _397  and  _399
REMARK  166  A    between atoms: _399  and  _400
REMARK  167  A    between atoms: _399  and  _402
REMARK  168  A    between atoms: _402  and  _403
REMARK  169  A    between atoms: _406  and  _408
REMARK  170  A    between atoms: _408  and  _409
REMARK  171  A    between atoms: _408  and  _411
REMARK  172  A    between atoms: _411  and  _412
REMARK  173  A    between atoms: _417  and  _419
REMARK  174  A    between atoms: _419  and  _420
REMARK  175  A    between atoms: _419  and  _422
REMARK  176  A    between atoms: _422  and  _423
REMARK  177  A    between atoms: _427  and  _428
REMARK  178  A    between atoms: _433  and  _435
REMARK  179  A    between atoms: _435  and  _436
REMARK  180  A    between atoms: _435  and  _438
REMARK  181  A    between atoms: _438  and  _439
REMARK  182  A    between atoms: _442  and  _444
REMARK  183  A    between atoms: _444  and  _445
REMARK  184  A    between atoms: _448  and  _450
REMARK  185  A    between atoms: _450  and  _451
REMARK  186  A    between atoms: _450  and  _453
REMARK  187  A    between atoms: _453  and  _454
REMARK  188  A    between atoms: _454  and  _455
REMARK  189  A    between atoms: _457  and  _459
REMARK  190  A    between atoms: _459  and  _460
REMARK  191  A    between atoms: _459  and  _462
REMARK  192  A    between atoms: _462  and  _463
REMARK  193  A    between atoms: _468  and  _470
REMARK  194  A    between atoms: _470  and  _471
REMARK  195  A    between atoms: _470  and  _473
REMARK  196  A    between atoms: _473  and  _474
REMARK  197  A    between atoms: _484  and  _486
REMARK  198  A    between atoms: _486  and  _487
REMARK  199  A    between atoms: _486  and  _489
REMARK  200  A    between atoms: _492  and  _494
REMARK  201  A    between atoms: _494  and  _495
REMARK  202  A    between atoms: _494  and  _497
REMARK  203  A    between atoms: _497  and  _498
REMARK  204  A    between atoms: _498  and  _499
REMARK  205  A    between atoms: _499  and  _500
REMARK  206  A    between atoms: _500  and  _501
REMARK  207  A    between atoms: _505  and  _507
REMARK  208  A    between atoms: _507  and  _508
REMARK  209  A    between atoms: _507  and  _510
REMARK  210  A    between atoms: _510  and  _511
REMARK  211  A    between atoms: _511  and  _512
REMARK  212  A    between atoms: _515  and  _517
REMARK  213  A    between atoms: _517  and  _518
REMARK  214  A    between atoms: _517  and  _520
REMARK  215  A    between atoms: _520  and  _521
REMARK  216  A    between atoms: _524  and  _526
REMARK  217  A    between atoms: _526  and  _527
REMARK  218  A    between atoms: _526  and  _529
REMARK  219  A    between atoms: _529  and  _530
REMARK  220  A    between atoms: _530  and  _531
REMARK  221  A    between atoms: _531  and  _532
REMARK  222  A    between atoms: _541  and  _543
REMARK  223  A    between atoms: _543  and  _544
REMARK  224  A    between atoms: _543  and  _546
REMARK  225  A    between atoms: _546  and  _547
REMARK  226  A    between atoms: _550  and  _552
REMARK  227  A    between atoms: _552  and  _553
REMARK  228  A    between atoms: _552  and  _555
REMARK  229  A    between atoms: _555  and  _556
REMARK  230  A    between atoms: _561  and  _563
REMARK  231  A    between atoms: _563  and  _564
REMARK  232  A    between atoms: _563  and  _566
REMARK  233  A    between atoms: _566  and  _567
REMARK  234  A    between atoms: _567  and  _568
REMARK  235  A    between atoms: _568  and  _569
REMARK  236  A    between atoms: _578  and  _580
REMARK  237  A    between atoms: _580  and  _581
REMARK  238  A    between atoms: _580  and  _583
REMARK  239  A    between atoms: _583  and  _584
REMARK  240  A    between atoms: _584  and  _585
REMARK  241  A    between atoms: _587  and  _589
REMARK  242  A    between atoms: _589  and  _590
REMARK  243  A    between atoms: _589  and  _592
REMARK  244  A    between atoms: _592  and  _593
REMARK  245  A    between atoms: _593  and  _594
REMARK  246  A    between atoms: _596  and  _598
REMARK  247  A    between atoms: _598  and  _599
REMARK  248  A    between atoms: _598  and  _601
REMARK  249  A    between atoms: _601  and  _602
REMARK  250  A    between atoms: _602  and  _603
REMARK  251  A    between atoms: _603  and  _604
REMARK  252  A    between atoms: _604  and  _605
REMARK  253  A    between atoms: _609  and  _611
REMARK  254  A    between atoms: _611  and  _612
REMARK  255  A    between atoms: _611  and  _614
REMARK  256  A    between atoms: _614  and  _615
REMARK                            x       y       z     vdW  Elec       q    Type
REMARK                         _______ _______ _______ _____ _____    ______ ____
ROOT
ATOM      1  O   HOH     1      64.779   4.749  24.139  0.00  0.00    +0.000 OA
ENDROOT
TORSDOF 0
REMARK  Name = ../refined-set-2016/1x8r/1x8r_pocket.pdb
REMARK  256 active torsions:
REMARK  status: ('A' for Active; 'I' for Inactive)
REMARK    1  A    between atoms: _1  and  _3
REMARK    2  A    between atoms: _3  and  _4
REMARK    3  A    between atoms: _3  and  _6
REMARK    4  A    between atoms: _6  and  _7
REMARK    5  A    between atoms: _9  and  _11
REMARK    6  A    between atoms: _11  and  _12
REMARK    7  A    between atoms: _11  and  _14
REMARK    8  A    between atoms: _14  and  _15
REMARK    9  A    between atoms: _15  and  _16
REMARK   10  A    between atoms: _16  and  _17
REMARK   11  A    between atoms: _17  and  _18
REMARK   12  A    between atoms: _22  and  _24
REMARK   13  A    between atoms: _24  and  _25
REMARK   14  A    between atoms: _24  and  _27
REMARK   15  A    between atoms: _27  and  _28
REMARK   16  A    between atoms: _30  and  _32
REMARK   17  A    between atoms: _32  and  _33
REMARK   18  A    between atoms: _32  and  _35
REMARK   19  A    between atoms: _38  and  _40
REMARK   20  A    between atoms: _40  and  _41
REMARK   21  A    between atoms: _40  and  _43
REMARK   22  A    between atoms: _43  and  _44
REMARK   23  A    between atoms: _46  and  _48
REMARK   24  A    between atoms: _48  and  _49
REMARK   25  A    between atoms: _48  and  _51
REMARK   26  A    between atoms: _51  and  _52
REMARK   27  A    between atoms: _57  and  _59
REMARK   28  A    between atoms: _59  and  _60
REMARK   29  A    between atoms: _59  and  _62
REMARK   30  A    between atoms: _62  and  _63
REMARK   31  A    between atoms: _63  and  _64
REMARK   32  A    between atoms: _64  and  _65
REMARK   33  A    between atoms: _74  and  _76
REMARK   34  A    between atoms: _76  and  _77
REMARK   35  A    between atoms: _76  and  _79
REMARK   36  A    between atoms: _79  and  _80
REMARK   37  A    between atoms: _83  and  _85
REMARK   38  A    between atoms: _85  and  _86
REMARK   39  A    between atoms: _85  and  _88
REMARK   40  A    between atoms: _88  and  _89
REMARK   41  A    between atoms: _94  and  _96
REMARK   42  A    between atoms: _96  and  _97
REMARK   43  A    between atoms: _100  and  _102
REMARK   44  A    between atoms: _102  and  _103
REMARK   45  A    between atoms: _105  and  _107
REMARK   46  A    between atoms: _107  and  _108
REMARK   47  A    between atoms: _107  and  _110
REMARK   48  A    between atoms: _110  and  _111
REMARK   49  A    between atoms: _114  and  _116
REMARK   50  A    between atoms: _116  and  _117
REMARK   51  A    between atoms: _120  and  _122
REMARK   52  A    between atoms: _122  and  _123
REMARK   53  A    between atoms: _122  and  _125
REMARK   54  A    between atoms: _125  and  _126
REMARK   55  A    between atoms: _126  and  _127
REMARK   56  A    between atoms: _129  and  _131
REMARK   57  A    between atoms: _131  and  _132
REMARK   58  A    between atoms: _131  and  _134
REMARK   59  A    between atoms: _134  and  _135
REMARK   60  A    between atoms: _135  and  _136
REMARK   61  A    between atoms: _136  and  _137
REMARK   62  A    between atoms: _147  and  _148
REMARK   63  A    between atoms: _153  and  _155
REMARK   64  A    between atoms: _155  and  _156
REMARK   65  A    between atoms: _155  and  _158
REMARK   66  A    between atoms: _158  and  _159
REMARK   67  A    between atoms: _159  and  _160
REMARK   68  A    between atoms: _162  and  _164
REMARK   69  A    between atoms: _164  and  _165
REMARK   70  A    between atoms: _164  and  _167
REMARK   71  A    between atoms: _167  and  _168
REMARK   72  A    between atoms: _168  and  _169
REMARK   73  A    between atoms: _169  and  _170
REMARK   74  A    between atoms: _180  and  _181
REMARK   75  A    between atoms: _186  and  _188
REMARK   76  A    between atoms: _188  and  _189
REMARK   77  A    between atoms: _191  and  _193
REMARK   78  A    between atoms: _193  and  _194
REMARK   79  A    between atoms: _193  and  _196
REMARK   80  A    between atoms: _196  and  _197
REMARK   81  A    between atoms: _199  and  _201
REMARK   82  A    between atoms: _201  and  _202
REMARK   83  A    between atoms: _201  and  _204
REMARK   84  A    between atoms: _207  and  _209
REMARK   85  A    between atoms: _209  and  _210
REMARK   86  A    between atoms: _209  and  _212
REMARK   87  A    between atoms: _212  and  _213
REMARK   88  A    between atoms: _215  and  _217
REMARK   89  A    between atoms: _217  and  _218
REMARK   90  A    between atoms: _217  and  _220
REMARK   91  A    between atoms: _220  and  _221
REMARK   92  A    between atoms: _223  and  _225
REMARK   93  A    between atoms: _225  and  _226
REMARK   94  A    between atoms: _225  and  _228
REMARK   95  A    between atoms: _228  and  _229
REMARK   96  A    between atoms: _229  and  _230
REMARK   97  A    between atoms: _235  and  _237
REMARK   98  A    between atoms: _237  and  _238
REMARK   99  A    between atoms: _237  and  _240
REMARK  100  A    between atoms: _240  and  _241
REMARK  101  A    between atoms: _247  and  _249
REMARK  102  A    between atoms: _249  and  _250
REMARK  103  A    between atoms: _249  and  _252
REMARK  104  A    between atoms: _252  and  _253
REMARK  105  A    between atoms: _256  and  _258
REMARK  106  A    between atoms: _258  and  _259
REMARK  107  A    between atoms: _258  and  _261
REMARK  108  A    between atoms: _261  and  _262
REMARK  109  A    between atoms: _265  and  _267
REMARK  110  A    between atoms: _267  and  _268
REMARK  111  A    between atoms: _271  and  _273
REMARK  112  A    between atoms: _273  and  _274
REMARK  113  A    between atoms: _273  and  _276
REMARK  114  A    between atoms: _276  and  _277
REMARK  115  A    between atoms: _277  and  _278
REMARK  116  A    between atoms: _280  and  _282
REMARK  117  A    between atoms: _282  and  _283
REMARK  118  A    between atoms: _282  and  _285
REMARK  119  A    between atoms: _285  and  _286
REMARK  120  A    between atoms: _289  and  _291
REMARK  121  A    between atoms: _291  and  _292
REMARK  122  A    between atoms: _291  and  _294
REMARK  123  A    between atoms: _297  and  _299
REMARK  124  A    between atoms: _299  and  _300
REMARK  125  A    between atoms: _299  and  _302
REMARK  126  A    between atoms: _302  and  _303
REMARK  127  A    between atoms: _305  and  _307
REMARK  128  A    between atoms: _307  and  _308
REMARK  129  A    between atoms: _307  and  _310
REMARK  130  A    between atoms: _310  and  _311
REMARK  131  A    between atoms: _311  and  _312
REMARK  132  A    between atoms: _312  and  _313
REMARK  133  A    between atoms: _313  and  _314
REMARK  134  A    between atoms: _319  and  _320
REMARK  135  A    between atoms: _325  and  _327
REMARK  136  A    between atoms: _327  and  _328
REMARK  137  A    between atoms: _327  and  _330
REMARK  138  A    between atoms: _330  and  _331
REMARK  139  A    between atoms: _336  and  _337
REMARK  140  A    between atoms: _339  and  _341
REMARK  141  A    between atoms: _341  and  _342
REMARK  142  A    between atoms: _341  and  _344
REMARK  143  A    between atoms: _344  and  _345
REMARK  144  A    between atoms: _348  and  _350
REMARK  145  A    between atoms: _350  and  _351
REMARK  146  A    between atoms: _350  and  _353
REMARK  147  A    between atoms: _353  and  _354
REMARK  148  A    between atoms: _357  and  _359
REMARK  149  A    between atoms: _359  and  _360
REMARK  150  A    between atoms: _359  and  _362
REMARK  151  A    between atoms: _362  and  _363
REMARK  152  A    between atoms: _366  and  _368
REMARK  153  A    between atoms: _368  and  _369
REMARK  154  A    between atoms: _368  and  _371
REMARK  155  A    between atoms: _371  and  _372
REMARK  156  A    between atoms: _375  and  _377
REMARK  157  A    between atoms: _377  and  _378
REMARK  158  A    between atoms: _377  and  _380
REMARK  159  A    between atoms: _380  and  _381
REMARK  160  A    between atoms: _383  and  _385
REMARK  161  A    between atoms: _385  and  _386
REMARK  162  A    between atoms: _385  and  _388
REMARK  163  A    between atoms: _388  and  _389
REMARK  164  A    between atoms: _394  and  _395
REMARK  165  A    between atoms: _397  and  _399
REMARK  166  A    between atoms: _399  and  _400
REMARK  167  A    between atoms: _399  and  _402
REMARK  168  A    between atoms: _402  and  _403
REMARK  169  A    between atoms: _406  and  _408
REMARK  170  A    between atoms: _408  and  _409
REMARK  171  A    between atoms: _408  and  _411
REMARK  172  A    between atoms: _411  and  _412
REMARK  173  A    between atoms: _417  and  _419
REMARK  174  A    between atoms: _419  and  _420
REMARK  175  A    between atoms: _419  and  _422
REMARK  176  A    between atoms: _422  and  _423
REMARK  177  A    between atoms: _427  and  _428
REMARK  178  A    between atoms: _433  and  _435
REMARK  179  A    between atoms: _435  and  _436
REMARK  180  A    between atoms: _435  and  _438
REMARK  181  A    between atoms: _438  and  _439
REMARK  182  A    between atoms: _442  and  _444
REMARK  183  A    between atoms: _444  and  _445
REMARK  184  A    between atoms: _448  and  _450
REMARK  185  A    between atoms: _450  and  _451
REMARK  186  A    between atoms: _450  and  _453
REMARK  187  A    between atoms: _453  and  _454
REMARK  188  A    between atoms: _454  and  _455
REMARK  189  A    between atoms: _457  and  _459
REMARK  190  A    between atoms: _459  and  _460
REMARK  191  A    between atoms: _459  and  _462
REMARK  192  A    between atoms: _462  and  _463
REMARK  193  A    between atoms: _468  and  _470
REMARK  194  A    between atoms: _470  and  _471
REMARK  195  A    between atoms: _470  and  _473
REMARK  196  A    between atoms: _473  and  _474
REMARK  197  A    between atoms: _484  and  _486
REMARK  198  A    between atoms: _486  and  _487
REMARK  199  A    between atoms: _486  and  _489
REMARK  200  A    between atoms: _492  and  _494
REMARK  201  A    between atoms: _494  and  _495
REMARK  202  A    between atoms: _494  and  _497
REMARK  203  A    between atoms: _497  and  _498
REMARK  204  A    between atoms: _498  and  _499
REMARK  205  A    between atoms: _499  and  _500
REMARK  206  A    between atoms: _500  and  _501
REMARK  207  A    between atoms: _505  and  _507
REMARK  208  A    between atoms: _507  and  _508
REMARK  209  A    between atoms: _507  and  _510
REMARK  210  A    between atoms: _510  and  _511
REMARK  211  A    between atoms: _511  and  _512
REMARK  212  A    between atoms: _515  and  _517
REMARK  213  A    between atoms: _517  and  _518
REMARK  214  A    between atoms: _517  and  _520
REMARK  215  A    between atoms: _520  and  _521
REMARK  216  A    between atoms: _524  and  _526
REMARK  217  A    between atoms: _526  and  _527
REMARK  218  A    between atoms: _526  and  _529
REMARK  219  A    between atoms: _529  and  _530
REMARK  220  A    between atoms: _530  and  _531
REMARK  221  A    between atoms: _531  and  _532
REMARK  222  A    between atoms: _541  and  _543
REMARK  223  A    between atoms: _543  and  _544
REMARK  224  A    between atoms: _543  and  _546
REMARK  225  A    between atoms: _546  and  _547
REMARK  226  A    between atoms: _550  and  _552
REMARK  227  A    between atoms: _552  and  _553
REMARK  228  A    between atoms: _552  and  _555
REMARK  229  A    between atoms: _555  and  _556
REMARK  230  A    between atoms: _561  and  _563
REMARK  231  A    between atoms: _563  and  _564
REMARK  232  A    between atoms: _563  and  _566
REMARK  233  A    between atoms: _566  and  _567
REMARK  234  A    between atoms: _567  and  _568
REMARK  235  A    between atoms: _568  and  _569
REMARK  236  A    between atoms: _578  and  _580
REMARK  237  A    between atoms: _580  and  _581
REMARK  238  A    between atoms: _580  and  _583
REMARK  239  A    between atoms: _583  and  _584
REMARK  240  A    between atoms: _584  and  _585
REMARK  241  A    between atoms: _587  and  _589
REMARK  242  A    between atoms: _589  and  _590
REMARK  243  A    between atoms: _589  and  _592
REMARK  244  A    between atoms: _592  and  _593
REMARK  245  A    between atoms: _593  and  _594
REMARK  246  A    between atoms: _596  and  _598
REMARK  247  A    between atoms: _598  and  _599
REMARK  248  A    between atoms: _598  and  _601
REMARK  249  A    between atoms: _601  and  _602
REMARK  250  A    between atoms: _602  and  _603
REMARK  251  A    between atoms: _603  and  _604
REMARK  252  A    between atoms: _604  and  _605
REMARK  253  A    between atoms: _609  and  _611
REMARK  254  A    between atoms: _611  and  _612
REMARK  255  A    between atoms: _611  and  _614
REMARK  256  A    between atoms: _614  and  _615
REMARK                            x       y       z     vdW  Elec       q    Type
REMARK                         _______ _______ _______ _____ _____    ______ ____
ROOT
ATOM      1  O   HOH     1      65.947   3.689  25.910  0.00  0.00    +0.000 OA
ENDROOT
TORSDOF 0
