REMARK  Name = ../refined-set-2016/4mr3/4mr3_pocket.pdb
REMARK  119 active torsions:
REMARK  status: ('A' for Active; 'I' for Inactive)
REMARK    1  A    between atoms: _1  and  _3
REMARK    2  A    between atoms: _3  and  _4
REMARK    3  A    between atoms: _7  and  _9
REMARK    4  A    between atoms: _9  and  _10
REMARK    5  A    between atoms: _9  and  _12
REMARK    6  A    between atoms: _12  and  _13
REMARK    7  A    between atoms: _24  and  _25
REMARK    8  A    between atoms: _30  and  _32
REMARK    9  A    between atoms: _32  and  _33
REMARK   10  A    between atoms: _32  and  _35
REMARK   11  A    between atoms: _35  and  _36
REMARK   12  A    between atoms: _42  and  _44
REMARK   13  A    between atoms: _44  and  _45
REMARK   14  A    between atoms: _44  and  _47
REMARK   15  A    between atoms: _47  and  _48
REMARK   16  A    between atoms: _48  and  _49
REMARK   17  A    between atoms: _54  and  _56
REMARK   18  A    between atoms: _56  and  _57
REMARK   19  A    between atoms: _56  and  _59
REMARK   20  A    between atoms: _59  and  _60
REMARK   21  A    between atoms: _60  and  _61
REMARK   22  A    between atoms: _67  and  _68
REMARK   23  A    between atoms: _73  and  _75
REMARK   24  A    between atoms: _75  and  _76
REMARK   25  A    between atoms: _75  and  _78
REMARK   26  A    between atoms: _81  and  _83
REMARK   27  A    between atoms: _83  and  _84
REMARK   28  A    between atoms: _83  and  _86
REMARK   29  A    between atoms: _86  and  _87
REMARK   30  A    between atoms: _90  and  _92
REMARK   31  A    between atoms: _92  and  _93
REMARK   32  A    between atoms: _96  and  _98
REMARK   33  A    between atoms: _98  and  _99
REMARK   34  A    between atoms: _98  and  _101
REMARK   35  A    between atoms: _101  and  _102
REMARK   36  A    between atoms: _102  and  _103
REMARK   37  A    between atoms: _103  and  _104
REMARK   38  A    between atoms: _104  and  _105
REMARK   39  A    between atoms: _109  and  _111
REMARK   40  A    between atoms: _111  and  _112
REMARK   41  A    between atoms: _111  and  _114
REMARK   42  A    between atoms: _114  and  _115
REMARK   43  A    between atoms: _118  and  _120
REMARK   44  A    between atoms: _120  and  _121
REMARK   45  A    between atoms: _120  and  _123
REMARK   46  A    between atoms: _123  and  _124
REMARK   47  A    between atoms: _127  and  _129
REMARK   48  A    between atoms: _129  and  _130
REMARK   49  A    between atoms: _129  and  _132
REMARK   50  A    between atoms: _132  and  _133
REMARK   51  A    between atoms: _138  and  _139
REMARK   52  A    between atoms: _141  and  _143
REMARK   53  A    between atoms: _143  and  _144
REMARK   54  A    between atoms: _143  and  _146
REMARK   55  A    between atoms: _146  and  _147
REMARK   56  A    between atoms: _150  and  _152
REMARK   57  A    between atoms: _152  and  _153
REMARK   58  A    between atoms: _152  and  _155
REMARK   59  A    between atoms: _155  and  _156
REMARK   60  A    between atoms: _156  and  _157
REMARK   61  A    between atoms: _159  and  _161
REMARK   62  A    between atoms: _161  and  _162
REMARK   63  A    between atoms: _161  and  _164
REMARK   64  A    between atoms: _164  and  _165
REMARK   65  A    between atoms: _168  and  _170
REMARK   66  A    between atoms: _170  and  _171
REMARK   67  A    between atoms: _170  and  _173
REMARK   68  A    between atoms: _173  and  _174
REMARK   69  A    between atoms: _174  and  _175
REMARK   70  A    between atoms: _177  and  _179
REMARK   71  A    between atoms: _179  and  _180
REMARK   72  A    between atoms: _179  and  _182
REMARK   73  A    between atoms: _182  and  _183
REMARK   74  A    between atoms: _183  and  _184
REMARK   75  A    between atoms: _186  and  _188
REMARK   76  A    between atoms: _188  and  _189
REMARK   77  A    between atoms: _188  and  _191
REMARK   78  A    between atoms: _191  and  _192
REMARK   79  A    between atoms: _197  and  _199
REMARK   80  A    between atoms: _199  and  _200
REMARK   81  A    between atoms: _199  and  _202
REMARK   82  A    between atoms: _204  and  _206
REMARK   83  A    between atoms: _206  and  _207
REMARK   84  A    between atoms: _206  and  _209
REMARK   85  A    between atoms: _209  and  _210
REMARK   86  A    between atoms: _215  and  _216
REMARK   87  A    between atoms: _218  and  _220
REMARK   88  A    between atoms: _220  and  _221
REMARK   89  A    between atoms: _220  and  _223
REMARK   90  A    between atoms: _223  and  _224
REMARK   91  A    between atoms: _227  and  _229
REMARK   92  A    between atoms: _229  and  _230
REMARK   93  A    between atoms: _229  and  _232
REMARK   94  A    between atoms: _232  and  _233
REMARK   95  A    between atoms: _238  and  _239
REMARK   96  A    between atoms: _241  and  _243
REMARK   97  A    between atoms: _243  and  _244
REMARK   98  A    between atoms: _243  and  _246
REMARK   99  A    between atoms: _246  and  _247
REMARK  100  A    between atoms: _252  and  _254
REMARK  101  A    between atoms: _254  and  _255
REMARK  102  A    between atoms: _254  and  _257
REMARK  103  A    between atoms: _257  and  _258
REMARK  104  A    between atoms: _258  and  _259
REMARK  105  A    between atoms: _259  and  _260
REMARK  106  A    between atoms: _260  and  _261
REMARK  107  A    between atoms: _265  and  _267
REMARK  108  A    between atoms: _267  and  _268
REMARK  109  A    between atoms: _267  and  _270
REMARK  110  A    between atoms: _270  and  _271
REMARK  111  A    between atoms: _274  and  _276
REMARK  112  A    between atoms: _276  and  _277
REMARK  113  A    between atoms: _276  and  _279
REMARK  114  A    between atoms: _279  and  _280
REMARK  115  A    between atoms: _283  and  _285
REMARK  116  A    between atoms: _285  and  _286
REMARK  117  A    between atoms: _285  and  _288
REMARK  118  A    between atoms: _291  and  _293
REMARK  119  A    between atoms: _293  and  _294
REMARK                            x       y       z     vdW  Elec       q    Type
REMARK                         _______ _______ _______ _____ _____    ______ ____
ROOT
ATOM      1  CA  GLN A   5      29.142  30.874  16.377  0.00  0.00    +0.149 C 
ENDROOT
BRANCH   1   3
ATOM      2  C   PHE A   4      29.998  33.057  17.073  0.00  0.00    +0.241 C 
ATOM      3  N   GLN A   5      29.167  32.030  17.279  0.00  0.00    -0.297 N 
ATOM      4  H   GLN A   5      28.525  32.051  18.097  0.00  0.00    +0.150 HD
ATOM      5  O   PHE A   4      30.688  33.171  16.079  0.00  0.00    -0.273 OA
BRANCH   2   6
ATOM      6  CA  PHE A   4      30.061  34.145  18.124  0.00  0.00    +0.153 C 
BRANCH   6   8
ATOM      7  C   PRO A   3      28.152  34.513  19.605  0.00  0.00    +0.241 C 
ATOM      8  N   PHE A   4      29.245  33.846  19.304  0.00  0.00    -0.297 N 
ATOM      9  H   PHE A   4      29.543  33.072  19.931  0.00  0.00    +0.150 HD
ATOM     10  O   PRO A   3      27.615  35.358  18.863  0.00  0.00    -0.273 OA
BRANCH   7  16
ATOM     11  C   TRP A   2      27.796  31.799  20.995  0.00  0.00    +0.244 C 
ATOM     12  N   PRO A   3      28.095  32.964  21.624  0.00  0.00    -0.272 N 
ATOM     13  CD  PRO A   3      28.834  33.301  22.844  0.00  0.00    +0.094 C 
ATOM     14  CG  PRO A   3      28.214  34.590  23.262  0.00  0.00    +0.024 C 
ATOM     15  CB  PRO A   3      27.895  35.290  21.968  0.00  0.00    +0.031 C 
ATOM     16  CA  PRO A   3      27.529  34.180  20.975  0.00  0.00    +0.152 C 
ATOM     17  O   TRP A   2      27.127  31.740  19.973  0.00  0.00    -0.273 OA
BRANCH  11  18
ATOM     18  CA  TRP A   2      28.364  30.483  21.547  0.00  0.00    +0.153 C 
BRANCH  18  20
ATOM     19  C   ALA A   1      30.727  30.984  21.369  0.00  0.00    +0.238 C 
ATOM     20  N   TRP A   2      29.714  30.499  22.084  0.00  0.00    -0.297 N 
ATOM     21  H   TRP A   2      29.891  30.127  23.039  0.00  0.00    +0.150 HD
ATOM     22  O   ALA A   1      30.564  31.586  20.316  0.00  0.00    -0.274 OA
BRANCH  19  23
ATOM     23  CA  ALA A   1      32.122  30.617  21.842  0.00  0.00    +0.145 C 
ATOM     24  CB  ALA A   1      32.517  29.329  21.166  0.00  0.00    +0.028 C 
BRANCH  23  25
ATOM     25  N   ALA A   1      32.251  30.502  23.306  0.00  0.00    -0.238 NA
ATOM     26  H   ALA A   1      32.423  29.568  23.731  0.00  0.00    +0.142 HD
ENDBRANCH  23  25
ENDBRANCH  19  23
ENDBRANCH  18  20
BRANCH  18  27
ATOM     27  CB  TRP A   2      27.370  29.838  22.528  0.00  0.00    +0.057 C 
BRANCH  27  28
ATOM     28  CG  TRP A   2      27.291  30.460  23.860  0.00  0.00    -0.002 A 
ATOM     29  CD1 TRP A   2      28.093  30.168  24.948  0.00  0.00    +0.068 A 
ATOM     30  NE1 TRP A   2      27.767  30.951  25.997  0.00  0.00    -0.352 N 
ATOM     31  HE1 TRP A   2      28.236  30.941  26.925  0.00  0.00    +0.166 HD
ATOM     32  CE2 TRP A   2      26.721  31.761  25.647  0.00  0.00    +0.056 A 
ATOM     33  CZ2 TRP A   2      26.051  32.732  26.388  0.00  0.00    +0.017 A 
ATOM     34  CH2 TRP A   2      25.016  33.402  25.774  0.00  0.00    +0.001 A 
ATOM     35  CZ3 TRP A   2      24.658  33.148  24.467  0.00  0.00    +0.000 A 
ATOM     36  CE3 TRP A   2      25.342  32.192  23.703  0.00  0.00    +0.001 A 
ATOM     37  CD2 TRP A   2      26.384  31.473  24.310  0.00  0.00    +0.013 A 
ENDBRANCH  27  28
ENDBRANCH  18  27
ENDBRANCH  11  18
ENDBRANCH   7  16
ENDBRANCH   6   8
BRANCH   6  38
ATOM     38  CB  PHE A   4      31.506  34.411  18.562  0.00  0.00    +0.055 C 
BRANCH  38  39
ATOM     39  CG  PHE A   4      31.605  35.448  19.643  0.00  0.00    -0.020 A 
ATOM     40  CD2 PHE A   4      31.788  35.103  20.951  0.00  0.00    -0.004 A 
ATOM     41  CE2 PHE A   4      31.807  36.063  21.951  0.00  0.00    -0.000 A 
ATOM     42  CZ  PHE A   4      31.719  37.383  21.623  0.00  0.00    -0.000 A 
ATOM     43  CE1 PHE A   4      31.561  37.752  20.309  0.00  0.00    -0.000 A 
ATOM     44  CD1 PHE A   4      31.505  36.805  19.322  0.00  0.00    -0.004 A 
ENDBRANCH  38  39
ENDBRANCH   6  38
ENDBRANCH   2   6
ENDBRANCH   1   3
BRANCH   1  45
ATOM     45  C   GLN A   5      28.214  31.050  15.193  0.00  0.00    +0.241 C 
ATOM     46  N   GLN A   6      27.561  32.197  15.105  0.00  0.00    -0.297 N 
ATOM     47  H   GLN A   6      27.758  32.937  15.808  0.00  0.00    +0.150 HD
ATOM     48  O   GLN A   5      28.096  30.142  14.368  0.00  0.00    -0.273 OA
BRANCH  46  49
ATOM     49  CA  GLN A   6      26.569  32.470  14.056  0.00  0.00    +0.149 C 
BRANCH  49  50
ATOM     50  C   GLN A   6      26.392  33.997  13.975  0.00  0.00    +0.244 C 
ATOM     51  O   GLN A   6      26.724  34.705  14.910  0.00  0.00    -0.273 OA
ATOM     52  N   PRO A   7      25.910  34.503  12.833  0.00  0.00    -0.272 N 
ATOM     53  CA  PRO A   7      25.571  35.941  12.765  0.00  0.00    +0.152 C 
ATOM     54  CB  PRO A   7      24.857  36.083  11.418  0.00  0.00    +0.031 C 
ATOM     55  CG  PRO A   7      25.428  34.957  10.624  0.00  0.00    +0.024 C 
ATOM     56  CD  PRO A   7      25.578  33.800  11.580  0.00  0.00    +0.094 C 
BRANCH  53  57
ATOM     57  C   PRO A   7      24.651  36.387  13.865  0.00  0.00    +0.241 C 
ATOM     58  O   PRO A   7      23.797  35.615  14.359  0.00  0.00    -0.273 OA
ATOM     59  N   VAL A   8      24.829  37.604  14.318  0.00  0.00    -0.297 N 
ATOM     60  H   VAL A   8      25.653  38.153  14.001  0.00  0.00    +0.150 HD
BRANCH  59  61
ATOM     61  CA  VAL A   8      23.871  38.210  15.278  0.00  0.00    +0.149 C 
BRANCH  61  62
ATOM     62  C   VAL A   8      22.469  38.267  14.652  0.00  0.00    +0.241 C 
ATOM     63  N   ASP A   9      21.492  37.629  15.303  0.00  0.00    -0.297 N 
ATOM     64  H   ASP A   9      21.722  37.119  16.180  0.00  0.00    +0.150 HD
ATOM     65  O   VAL A   8      22.311  38.835  13.594  0.00  0.00    -0.273 OA
BRANCH  63  66
ATOM     66  CA  ASP A   9      20.110  37.624  14.823  0.00  0.00    +0.160 C 
BRANCH  66  67
ATOM     67  C   ASP A   9      19.411  38.820  15.472  0.00  0.00    +0.241 C 
ATOM     68  O   ASP A   9      18.880  38.738  16.591  0.00  0.00    -0.273 OA
ATOM     69  N   ALA A  10      19.454  39.965  14.781  0.00  0.00    -0.298 N 
ATOM     70  H   ALA A  10      19.863  39.957  13.825  0.00  0.00    +0.150 HD
BRANCH  69  71
ATOM     71  CA  ALA A  10      18.948  41.225  15.319  0.00  0.00    +0.137 C 
ATOM     72  CB  ALA A  10      19.422  42.388  14.479  0.00  0.00    +0.030 C 
BRANCH  71  73
ATOM     73  C   ALA A  10      17.415  41.180  15.439  0.00  0.00    +0.227 C 
ATOM     74  O   ALA A  10      16.850  41.824  16.329  0.00  0.00    -0.286 OA
ENDBRANCH  71  73
ENDBRANCH  69  71
ENDBRANCH  66  67
BRANCH  66  75
ATOM     75  CB  ASP A   9      19.401  36.300  15.149  0.00  0.00    +0.143 C 
BRANCH  75  76
ATOM     76  CG  ASP A   9      18.034  36.210  14.517  0.00  0.00    +0.367 C 
ATOM     77  OD2 ASP A   9      17.498  35.088  14.403  0.00  0.00    -0.246 OA
ATOM     78  OD1 ASP A   9      17.444  37.253  14.158  0.00  0.00    -0.246 OA
ENDBRANCH  75  76
ENDBRANCH  66  75
ENDBRANCH  63  66
ENDBRANCH  61  62
BRANCH  61  79
ATOM     79  CB  VAL A   8      24.330  39.639  15.729  0.00  0.00    +0.027 C 
ATOM     80  CG2 VAL A   8      23.289  40.328  16.597  0.00  0.00    +0.002 C 
ATOM     81  CG1 VAL A   8      25.659  39.557  16.436  0.00  0.00    +0.002 C 
ENDBRANCH  61  79
ENDBRANCH  59  61
ENDBRANCH  53  57
ENDBRANCH  49  50
BRANCH  49  82
ATOM     82  CB  GLN A   6      25.206  31.824  14.395  0.00  0.00    +0.039 C 
BRANCH  82  83
ATOM     83  CG  GLN A   6      24.567  32.380  15.642  0.00  0.00    +0.087 C 
BRANCH  83  84
ATOM     84  CD  GLN A   6      25.263  31.897  16.909  0.00  0.00    +0.219 C 
ATOM     85  NE2 GLN A   6      25.649  32.839  17.762  0.00  0.00    -0.329 N 
ATOM     86 HE21 GLN A   6      26.198  32.582  18.607  0.00  0.00    +0.145 HD
ATOM     87 HE22 GLN A   6      25.402  33.834  17.585  0.00  0.00    +0.145 HD
ATOM     88  OE1 GLN A   6      25.534  30.688  17.077  0.00  0.00    -0.275 OA
ENDBRANCH  83  84
ENDBRANCH  82  83
ENDBRANCH  49  82
ENDBRANCH  46  49
ENDBRANCH   1  45
BRANCH   1  89
ATOM     89  CB  GLN A   5      28.798  29.578  17.156  0.00  0.00    +0.039 C 
BRANCH  89  90
ATOM     90  CG  GLN A   5      29.928  29.030  18.010  0.00  0.00    +0.087 C 
BRANCH  90  91
ATOM     91  CD  GLN A   5      29.489  27.825  18.819  0.00  0.00    +0.219 C 
ATOM     92  NE2 GLN A   5      30.437  26.927  19.076  0.00  0.00    -0.329 N 
ATOM     93 HE21 GLN A   5      30.185  26.013  19.504  0.00  0.00    +0.145 HD
ATOM     94 HE22 GLN A   5      31.429  27.139  18.849  0.00  0.00    +0.145 HD
ATOM     95  OE1 GLN A   5      28.279  27.617  19.074  0.00  0.00    -0.275 OA
ENDBRANCH  90  91
ENDBRANCH  89  90
ENDBRANCH   1  89
TORSDOF 31
REMARK  Name = ../refined-set-2016/4mr3/4mr3_pocket.pdb
REMARK  119 active torsions:
REMARK  status: ('A' for Active; 'I' for Inactive)
REMARK    1  A    between atoms: _1  and  _3
REMARK    2  A    between atoms: _3  and  _4
REMARK    3  A    between atoms: _7  and  _9
REMARK    4  A    between atoms: _9  and  _10
REMARK    5  A    between atoms: _9  and  _12
REMARK    6  A    between atoms: _12  and  _13
REMARK    7  A    between atoms: _24  and  _25
REMARK    8  A    between atoms: _30  and  _32
REMARK    9  A    between atoms: _32  and  _33
REMARK   10  A    between atoms: _32  and  _35
REMARK   11  A    between atoms: _35  and  _36
REMARK   12  A    between atoms: _42  and  _44
REMARK   13  A    between atoms: _44  and  _45
REMARK   14  A    between atoms: _44  and  _47
REMARK   15  A    between atoms: _47  and  _48
REMARK   16  A    between atoms: _48  and  _49
REMARK   17  A    between atoms: _54  and  _56
REMARK   18  A    between atoms: _56  and  _57
REMARK   19  A    between atoms: _56  and  _59
REMARK   20  A    between atoms: _59  and  _60
REMARK   21  A    between atoms: _60  and  _61
REMARK   22  A    between atoms: _67  and  _68
REMARK   23  A    between atoms: _73  and  _75
REMARK   24  A    between atoms: _75  and  _76
REMARK   25  A    between atoms: _75  and  _78
REMARK   26  A    between atoms: _81  and  _83
REMARK   27  A    between atoms: _83  and  _84
REMARK   28  A    between atoms: _83  and  _86
REMARK   29  A    between atoms: _86  and  _87
REMARK   30  A    between atoms: _90  and  _92
REMARK   31  A    between atoms: _92  and  _93
REMARK   32  A    between atoms: _96  and  _98
REMARK   33  A    between atoms: _98  and  _99
REMARK   34  A    between atoms: _98  and  _101
REMARK   35  A    between atoms: _101  and  _102
REMARK   36  A    between atoms: _102  and  _103
REMARK   37  A    between atoms: _103  and  _104
REMARK   38  A    between atoms: _104  and  _105
REMARK   39  A    between atoms: _109  and  _111
REMARK   40  A    between atoms: _111  and  _112
REMARK   41  A    between atoms: _111  and  _114
REMARK   42  A    between atoms: _114  and  _115
REMARK   43  A    between atoms: _118  and  _120
REMARK   44  A    between atoms: _120  and  _121
REMARK   45  A    between atoms: _120  and  _123
REMARK   46  A    between atoms: _123  and  _124
REMARK   47  A    between atoms: _127  and  _129
REMARK   48  A    between atoms: _129  and  _130
REMARK   49  A    between atoms: _129  and  _132
REMARK   50  A    between atoms: _132  and  _133
REMARK   51  A    between atoms: _138  and  _139
REMARK   52  A    between atoms: _141  and  _143
REMARK   53  A    between atoms: _143  and  _144
REMARK   54  A    between atoms: _143  and  _146
REMARK   55  A    between atoms: _146  and  _147
REMARK   56  A    between atoms: _150  and  _152
REMARK   57  A    between atoms: _152  and  _153
REMARK   58  A    between atoms: _152  and  _155
REMARK   59  A    between atoms: _155  and  _156
REMARK   60  A    between atoms: _156  and  _157
REMARK   61  A    between atoms: _159  and  _161
REMARK   62  A    between atoms: _161  and  _162
REMARK   63  A    between atoms: _161  and  _164
REMARK   64  A    between atoms: _164  and  _165
REMARK   65  A    between atoms: _168  and  _170
REMARK   66  A    between atoms: _170  and  _171
REMARK   67  A    between atoms: _170  and  _173
REMARK   68  A    between atoms: _173  and  _174
REMARK   69  A    between atoms: _174  and  _175
REMARK   70  A    between atoms: _177  and  _179
REMARK   71  A    between atoms: _179  and  _180
REMARK   72  A    between atoms: _179  and  _182
REMARK   73  A    between atoms: _182  and  _183
REMARK   74  A    between atoms: _183  and  _184
REMARK   75  A    between atoms: _186  and  _188
REMARK   76  A    between atoms: _188  and  _189
REMARK   77  A    between atoms: _188  and  _191
REMARK   78  A    between atoms: _191  and  _192
REMARK   79  A    between atoms: _197  and  _199
REMARK   80  A    between atoms: _199  and  _200
REMARK   81  A    between atoms: _199  and  _202
REMARK   82  A    between atoms: _204  and  _206
REMARK   83  A    between atoms: _206  and  _207
REMARK   84  A    between atoms: _206  and  _209
REMARK   85  A    between atoms: _209  and  _210
REMARK   86  A    between atoms: _215  and  _216
REMARK   87  A    between atoms: _218  and  _220
REMARK   88  A    between atoms: _220  and  _221
REMARK   89  A    between atoms: _220  and  _223
REMARK   90  A    between atoms: _223  and  _224
REMARK   91  A    between atoms: _227  and  _229
REMARK   92  A    between atoms: _229  and  _230
REMARK   93  A    between atoms: _229  and  _232
REMARK   94  A    between atoms: _232  and  _233
REMARK   95  A    between atoms: _238  and  _239
REMARK   96  A    between atoms: _241  and  _243
REMARK   97  A    between atoms: _243  and  _244
REMARK   98  A    between atoms: _243  and  _246
REMARK   99  A    between atoms: _246  and  _247
REMARK  100  A    between atoms: _252  and  _254
REMARK  101  A    between atoms: _254  and  _255
REMARK  102  A    between atoms: _254  and  _257
REMARK  103  A    between atoms: _257  and  _258
REMARK  104  A    between atoms: _258  and  _259
REMARK  105  A    between atoms: _259  and  _260
REMARK  106  A    between atoms: _260  and  _261
REMARK  107  A    between atoms: _265  and  _267
REMARK  108  A    between atoms: _267  and  _268
REMARK  109  A    between atoms: _267  and  _270
REMARK  110  A    between atoms: _270  and  _271
REMARK  111  A    between atoms: _274  and  _276
REMARK  112  A    between atoms: _276  and  _277
REMARK  113  A    between atoms: _276  and  _279
REMARK  114  A    between atoms: _279  and  _280
REMARK  115  A    between atoms: _283  and  _285
REMARK  116  A    between atoms: _285  and  _286
REMARK  117  A    between atoms: _285  and  _288
REMARK  118  A    between atoms: _291  and  _293
REMARK  119  A    between atoms: _293  and  _294
REMARK                            x       y       z     vdW  Elec       q    Type
REMARK                         _______ _______ _______ _____ _____    ______ ____
ROOT
ATOM      1  CA  LYS A   1      15.228  37.507  17.333  0.00  0.00    +0.145 C 
ENDROOT
BRANCH   1   2
ATOM      2  C   LYS A   1      15.637  38.149  18.636  0.00  0.00    +0.238 C 
ATOM      3  O   LYS A   1      14.923  38.050  19.634  0.00  0.00    -0.274 OA
ATOM      4  N   LEU A   2      16.755  38.881  18.619  0.00  0.00    -0.298 N 
ATOM      5  H   LEU A   2      17.297  38.961  17.735  0.00  0.00    +0.150 HD
BRANCH   4   6
ATOM      6  CA  LEU A   2      17.234  39.574  19.820  0.00  0.00    +0.137 C 
BRANCH   6   7
ATOM      7  C   LEU A   2      16.682  40.972  20.015  0.00  0.00    +0.227 C 
ATOM      8  O   LEU A   2      16.949  41.623  21.042  0.00  0.00    -0.286 OA
ENDBRANCH   6   7
BRANCH   6   9
ATOM      9  CB  LEU A   2      18.767  39.598  19.760  0.00  0.00    +0.028 C 
BRANCH   9  10
ATOM     10  CG  LEU A   2      19.415  38.225  19.779  0.00  0.00    +0.002 C 
ATOM     11  CD2 LEU A   2      19.115  37.455  21.071  0.00  0.00    +0.000 C 
ATOM     12  CD1 LEU A   2      20.926  38.373  19.569  0.00  0.00    +0.000 C 
ENDBRANCH   9  10
ENDBRANCH   6   9
ENDBRANCH   4   6
ENDBRANCH   1   2
BRANCH   1  13
ATOM     13  N   LYS A   1      15.562  38.349  16.184  0.00  0.00    -0.238 NA
ATOM     14  H   LYS A   1      16.301  38.033  15.524  0.00  0.00    +0.142 HD
ENDBRANCH   1  13
BRANCH   1  15
ATOM     15  CB  LYS A   1      15.809  36.096  17.165  0.00  0.00    +0.026 C 
BRANCH  15  16
ATOM     16  CG  LYS A   1      15.382  35.134  18.261  0.00  0.00    -0.000 C 
BRANCH  16  17
ATOM     17  CD  LYS A   1      15.916  33.749  17.950  0.00  0.00    -0.024 C 
BRANCH  17  18
ATOM     18  CE  LYS A   1      15.701  32.764  19.087  0.00  0.00    -0.086 C 
BRANCH  18  19
ATOM     19  NZ  LYS A   1      14.262  32.524  19.332  0.00  0.00    +0.380 N 
ATOM     20  HZ1 LYS A   1      14.153  31.847  20.114  0.00  0.00    -0.089 HD
ATOM     21  HZ2 LYS A   1      13.800  33.422  19.582  0.00  0.00    -0.089 HD
ATOM     22  HZ3 LYS A   1      13.825  32.135  18.472  0.00  0.00    -0.089 HD
ENDBRANCH  18  19
ENDBRANCH  17  18
ENDBRANCH  16  17
ENDBRANCH  15  16
ENDBRANCH   1  15
TORSDOF 11
REMARK  Name = ../refined-set-2016/4mr3/4mr3_pocket.pdb
REMARK  119 active torsions:
REMARK  status: ('A' for Active; 'I' for Inactive)
REMARK    1  A    between atoms: _1  and  _3
REMARK    2  A    between atoms: _3  and  _4
REMARK    3  A    between atoms: _7  and  _9
REMARK    4  A    between atoms: _9  and  _10
REMARK    5  A    between atoms: _9  and  _12
REMARK    6  A    between atoms: _12  and  _13
REMARK    7  A    between atoms: _24  and  _25
REMARK    8  A    between atoms: _30  and  _32
REMARK    9  A    between atoms: _32  and  _33
REMARK   10  A    between atoms: _32  and  _35
REMARK   11  A    between atoms: _35  and  _36
REMARK   12  A    between atoms: _42  and  _44
REMARK   13  A    between atoms: _44  and  _45
REMARK   14  A    between atoms: _44  and  _47
REMARK   15  A    between atoms: _47  and  _48
REMARK   16  A    between atoms: _48  and  _49
REMARK   17  A    between atoms: _54  and  _56
REMARK   18  A    between atoms: _56  and  _57
REMARK   19  A    between atoms: _56  and  _59
REMARK   20  A    between atoms: _59  and  _60
REMARK   21  A    between atoms: _60  and  _61
REMARK   22  A    between atoms: _67  and  _68
REMARK   23  A    between atoms: _73  and  _75
REMARK   24  A    between atoms: _75  and  _76
REMARK   25  A    between atoms: _75  and  _78
REMARK   26  A    between atoms: _81  and  _83
REMARK   27  A    between atoms: _83  and  _84
REMARK   28  A    between atoms: _83  and  _86
REMARK   29  A    between atoms: _86  and  _87
REMARK   30  A    between atoms: _90  and  _92
REMARK   31  A    between atoms: _92  and  _93
REMARK   32  A    between atoms: _96  and  _98
REMARK   33  A    between atoms: _98  and  _99
REMARK   34  A    between atoms: _98  and  _101
REMARK   35  A    between atoms: _101  and  _102
REMARK   36  A    between atoms: _102  and  _103
REMARK   37  A    between atoms: _103  and  _104
REMARK   38  A    between atoms: _104  and  _105
REMARK   39  A    between atoms: _109  and  _111
REMARK   40  A    between atoms: _111  and  _112
REMARK   41  A    between atoms: _111  and  _114
REMARK   42  A    between atoms: _114  and  _115
REMARK   43  A    between atoms: _118  and  _120
REMARK   44  A    between atoms: _120  and  _121
REMARK   45  A    between atoms: _120  and  _123
REMARK   46  A    between atoms: _123  and  _124
REMARK   47  A    between atoms: _127  and  _129
REMARK   48  A    between atoms: _129  and  _130
REMARK   49  A    between atoms: _129  and  _132
REMARK   50  A    between atoms: _132  and  _133
REMARK   51  A    between atoms: _138  and  _139
REMARK   52  A    between atoms: _141  and  _143
REMARK   53  A    between atoms: _143  and  _144
REMARK   54  A    between atoms: _143  and  _146
REMARK   55  A    between atoms: _146  and  _147
REMARK   56  A    between atoms: _150  and  _152
REMARK   57  A    between atoms: _152  and  _153
REMARK   58  A    between atoms: _152  and  _155
REMARK   59  A    between atoms: _155  and  _156
REMARK   60  A    between atoms: _156  and  _157
REMARK   61  A    between atoms: _159  and  _161
REMARK   62  A    between atoms: _161  and  _162
REMARK   63  A    between atoms: _161  and  _164
REMARK   64  A    between atoms: _164  and  _165
REMARK   65  A    between atoms: _168  and  _170
REMARK   66  A    between atoms: _170  and  _171
REMARK   67  A    between atoms: _170  and  _173
REMARK   68  A    between atoms: _173  and  _174
REMARK   69  A    between atoms: _174  and  _175
REMARK   70  A    between atoms: _177  and  _179
REMARK   71  A    between atoms: _179  and  _180
REMARK   72  A    between atoms: _179  and  _182
REMARK   73  A    between atoms: _182  and  _183
REMARK   74  A    between atoms: _183  and  _184
REMARK   75  A    between atoms: _186  and  _188
REMARK   76  A    between atoms: _188  and  _189
REMARK   77  A    between atoms: _188  and  _191
REMARK   78  A    between atoms: _191  and  _192
REMARK   79  A    between atoms: _197  and  _199
REMARK   80  A    between atoms: _199  and  _200
REMARK   81  A    between atoms: _199  and  _202
REMARK   82  A    between atoms: _204  and  _206
REMARK   83  A    between atoms: _206  and  _207
REMARK   84  A    between atoms: _206  and  _209
REMARK   85  A    between atoms: _209  and  _210
REMARK   86  A    between atoms: _215  and  _216
REMARK   87  A    between atoms: _218  and  _220
REMARK   88  A    between atoms: _220  and  _221
REMARK   89  A    between atoms: _220  and  _223
REMARK   90  A    between atoms: _223  and  _224
REMARK   91  A    between atoms: _227  and  _229
REMARK   92  A    between atoms: _229  and  _230
REMARK   93  A    between atoms: _229  and  _232
REMARK   94  A    between atoms: _232  and  _233
REMARK   95  A    between atoms: _238  and  _239
REMARK   96  A    between atoms: _241  and  _243
REMARK   97  A    between atoms: _243  and  _244
REMARK   98  A    between atoms: _243  and  _246
REMARK   99  A    between atoms: _246  and  _247
REMARK  100  A    between atoms: _252  and  _254
REMARK  101  A    between atoms: _254  and  _255
REMARK  102  A    between atoms: _254  and  _257
REMARK  103  A    between atoms: _257  and  _258
REMARK  104  A    between atoms: _258  and  _259
REMARK  105  A    between atoms: _259  and  _260
REMARK  106  A    between atoms: _260  and  _261
REMARK  107  A    between atoms: _265  and  _267
REMARK  108  A    between atoms: _267  and  _268
REMARK  109  A    between atoms: _267  and  _270
REMARK  110  A    between atoms: _270  and  _271
REMARK  111  A    between atoms: _274  and  _276
REMARK  112  A    between atoms: _276  and  _277
REMARK  113  A    between atoms: _276  and  _279
REMARK  114  A    between atoms: _279  and  _280
REMARK  115  A    between atoms: _283  and  _285
REMARK  116  A    between atoms: _285  and  _286
REMARK  117  A    between atoms: _285  and  _288
REMARK  118  A    between atoms: _291  and  _293
REMARK  119  A    between atoms: _293  and  _294
REMARK                            x       y       z     vdW  Elec       q    Type
REMARK                         _______ _______ _______ _____ _____    ______ ____
ROOT
ATOM      1  CA  LEU A   1      18.441  44.888  18.072  0.00  0.00    +0.133 C 
ENDROOT
BRANCH   1   2
ATOM      2  N   LEU A   1      17.322  43.950  18.113  0.00  0.00    -0.239 NA
ATOM      3  H   LEU A   1      17.217  43.279  17.325  0.00  0.00    +0.142 HD
ENDBRANCH   1   2
BRANCH   1   4
ATOM      4  C   LEU A   1      18.395  45.727  16.818  0.00  0.00    +0.224 C 
ATOM      5  O   LEU A   1      19.220  45.604  15.900  0.00  0.00    -0.287 OA
ENDBRANCH   1   4
BRANCH   1   6
ATOM      6  CB  LEU A   1      19.742  44.093  18.142  0.00  0.00    +0.025 C 
BRANCH   6   7
ATOM      7  CG  LEU A   1      19.917  43.146  19.315  0.00  0.00    +0.002 C 
ATOM      8  CD2 LEU A   1      19.925  43.902  20.632  0.00  0.00    +0.000 C 
ATOM      9  CD1 LEU A   1      21.193  42.351  19.131  0.00  0.00    +0.000 C 
ENDBRANCH   6   7
ENDBRANCH   1   6
TORSDOF 4
REMARK  Name = ../refined-set-2016/4mr3/4mr3_pocket.pdb
REMARK  119 active torsions:
REMARK  status: ('A' for Active; 'I' for Inactive)
REMARK    1  A    between atoms: _1  and  _3
REMARK    2  A    between atoms: _3  and  _4
REMARK    3  A    between atoms: _7  and  _9
REMARK    4  A    between atoms: _9  and  _10
REMARK    5  A    between atoms: _9  and  _12
REMARK    6  A    between atoms: _12  and  _13
REMARK    7  A    between atoms: _24  and  _25
REMARK    8  A    between atoms: _30  and  _32
REMARK    9  A    between atoms: _32  and  _33
REMARK   10  A    between atoms: _32  and  _35
REMARK   11  A    between atoms: _35  and  _36
REMARK   12  A    between atoms: _42  and  _44
REMARK   13  A    between atoms: _44  and  _45
REMARK   14  A    between atoms: _44  and  _47
REMARK   15  A    between atoms: _47  and  _48
REMARK   16  A    between atoms: _48  and  _49
REMARK   17  A    between atoms: _54  and  _56
REMARK   18  A    between atoms: _56  and  _57
REMARK   19  A    between atoms: _56  and  _59
REMARK   20  A    between atoms: _59  and  _60
REMARK   21  A    between atoms: _60  and  _61
REMARK   22  A    between atoms: _67  and  _68
REMARK   23  A    between atoms: _73  and  _75
REMARK   24  A    between atoms: _75  and  _76
REMARK   25  A    between atoms: _75  and  _78
REMARK   26  A    between atoms: _81  and  _83
REMARK   27  A    between atoms: _83  and  _84
REMARK   28  A    between atoms: _83  and  _86
REMARK   29  A    between atoms: _86  and  _87
REMARK   30  A    between atoms: _90  and  _92
REMARK   31  A    between atoms: _92  and  _93
REMARK   32  A    between atoms: _96  and  _98
REMARK   33  A    between atoms: _98  and  _99
REMARK   34  A    between atoms: _98  and  _101
REMARK   35  A    between atoms: _101  and  _102
REMARK   36  A    between atoms: _102  and  _103
REMARK   37  A    between atoms: _103  and  _104
REMARK   38  A    between atoms: _104  and  _105
REMARK   39  A    between atoms: _109  and  _111
REMARK   40  A    between atoms: _111  and  _112
REMARK   41  A    between atoms: _111  and  _114
REMARK   42  A    between atoms: _114  and  _115
REMARK   43  A    between atoms: _118  and  _120
REMARK   44  A    between atoms: _120  and  _121
REMARK   45  A    between atoms: _120  and  _123
REMARK   46  A    between atoms: _123  and  _124
REMARK   47  A    between atoms: _127  and  _129
REMARK   48  A    between atoms: _129  and  _130
REMARK   49  A    between atoms: _129  and  _132
REMARK   50  A    between atoms: _132  and  _133
REMARK   51  A    between atoms: _138  and  _139
REMARK   52  A    between atoms: _141  and  _143
REMARK   53  A    between atoms: _143  and  _144
REMARK   54  A    between atoms: _143  and  _146
REMARK   55  A    between atoms: _146  and  _147
REMARK   56  A    between atoms: _150  and  _152
REMARK   57  A    between atoms: _152  and  _153
REMARK   58  A    between atoms: _152  and  _155
REMARK   59  A    between atoms: _155  and  _156
REMARK   60  A    between atoms: _156  and  _157
REMARK   61  A    between atoms: _159  and  _161
REMARK   62  A    between atoms: _161  and  _162
REMARK   63  A    between atoms: _161  and  _164
REMARK   64  A    between atoms: _164  and  _165
REMARK   65  A    between atoms: _168  and  _170
REMARK   66  A    between atoms: _170  and  _171
REMARK   67  A    between atoms: _170  and  _173
REMARK   68  A    between atoms: _173  and  _174
REMARK   69  A    between atoms: _174  and  _175
REMARK   70  A    between atoms: _177  and  _179
REMARK   71  A    between atoms: _179  and  _180
REMARK   72  A    between atoms: _179  and  _182
REMARK   73  A    between atoms: _182  and  _183
REMARK   74  A    between atoms: _183  and  _184
REMARK   75  A    between atoms: _186  and  _188
REMARK   76  A    between atoms: _188  and  _189
REMARK   77  A    between atoms: _188  and  _191
REMARK   78  A    between atoms: _191  and  _192
REMARK   79  A    between atoms: _197  and  _199
REMARK   80  A    between atoms: _199  and  _200
REMARK   81  A    between atoms: _199  and  _202
REMARK   82  A    between atoms: _204  and  _206
REMARK   83  A    between atoms: _206  and  _207
REMARK   84  A    between atoms: _206  and  _209
REMARK   85  A    between atoms: _209  and  _210
REMARK   86  A    between atoms: _215  and  _216
REMARK   87  A    between atoms: _218  and  _220
REMARK   88  A    between atoms: _220  and  _221
REMARK   89  A    between atoms: _220  and  _223
REMARK   90  A    between atoms: _223  and  _224
REMARK   91  A    between atoms: _227  and  _229
REMARK   92  A    between atoms: _229  and  _230
REMARK   93  A    between atoms: _229  and  _232
REMARK   94  A    between atoms: _232  and  _233
REMARK   95  A    between atoms: _238  and  _239
REMARK   96  A    between atoms: _241  and  _243
REMARK   97  A    between atoms: _243  and  _244
REMARK   98  A    between atoms: _243  and  _246
REMARK   99  A    between atoms: _246  and  _247
REMARK  100  A    between atoms: _252  and  _254
REMARK  101  A    between atoms: _254  and  _255
REMARK  102  A    between atoms: _254  and  _257
REMARK  103  A    between atoms: _257  and  _258
REMARK  104  A    between atoms: _258  and  _259
REMARK  105  A    between atoms: _259  and  _260
REMARK  106  A    between atoms: _260  and  _261
REMARK  107  A    between atoms: _265  and  _267
REMARK  108  A    between atoms: _267  and  _268
REMARK  109  A    between atoms: _267  and  _270
REMARK  110  A    between atoms: _270  and  _271
REMARK  111  A    between atoms: _274  and  _276
REMARK  112  A    between atoms: _276  and  _277
REMARK  113  A    between atoms: _276  and  _279
REMARK  114  A    between atoms: _279  and  _280
REMARK  115  A    between atoms: _283  and  _285
REMARK  116  A    between atoms: _285  and  _286
REMARK  117  A    between atoms: _285  and  _288
REMARK  118  A    between atoms: _291  and  _293
REMARK  119  A    between atoms: _293  and  _294
REMARK                            x       y       z     vdW  Elec       q    Type
REMARK                         _______ _______ _______ _____ _____    ______ ____
ROOT
ATOM      1  CG  TYR A   1      24.067  44.274  15.728  0.00  0.00    -0.020 A 
ATOM      2  CD2 TYR A   1      24.902  44.282  16.830  0.00  0.00    -0.001 A 
ATOM      3  CE2 TYR A   1      26.151  43.664  16.811  0.00  0.00    +0.036 A 
ATOM      4  CZ  TYR A   1      26.564  43.030  15.655  0.00  0.00    +0.134 A 
ATOM      5  CE1 TYR A   1      25.738  43.009  14.559  0.00  0.00    +0.036 A 
ATOM      6  CD1 TYR A   1      24.519  43.642  14.589  0.00  0.00    -0.001 A 
ENDROOT
BRANCH   4   7
ATOM      7  OH  TYR A   1      27.811  42.409  15.621  0.00  0.00    -0.506 OA
ATOM      8  HH  TYR A   1      28.261  42.527  16.495  0.00  0.00    +0.292 HD
ENDBRANCH   4   7
BRANCH   1   9
ATOM      9  CB  TYR A   1      22.732  45.021  15.752  0.00  0.00    +0.051 C 
BRANCH   9  10
ATOM     10  CA  TYR A   1      22.931  46.511  15.379  0.00  0.00    +0.137 C 
BRANCH  10  11
ATOM     11  N   TYR A   1      21.702  47.299  15.512  0.00  0.00    -0.239 NA
ATOM     12  H   TYR A   1      20.816  46.839  15.804  0.00  0.00    +0.142 HD
ENDBRANCH  10  11
BRANCH  10  13
ATOM     13  C   TYR A   1      23.517  46.653  13.989  0.00  0.00    +0.224 C 
ATOM     14  O   TYR A   1      24.679  47.008  13.850  0.00  0.00    -0.287 OA
ENDBRANCH  10  13
ENDBRANCH   9  10
ENDBRANCH   1   9
TORSDOF 5
REMARK  Name = ../refined-set-2016/4mr3/4mr3_pocket.pdb
REMARK  119 active torsions:
REMARK  status: ('A' for Active; 'I' for Inactive)
REMARK    1  A    between atoms: _1  and  _3
REMARK    2  A    between atoms: _3  and  _4
REMARK    3  A    between atoms: _7  and  _9
REMARK    4  A    between atoms: _9  and  _10
REMARK    5  A    between atoms: _9  and  _12
REMARK    6  A    between atoms: _12  and  _13
REMARK    7  A    between atoms: _24  and  _25
REMARK    8  A    between atoms: _30  and  _32
REMARK    9  A    between atoms: _32  and  _33
REMARK   10  A    between atoms: _32  and  _35
REMARK   11  A    between atoms: _35  and  _36
REMARK   12  A    between atoms: _42  and  _44
REMARK   13  A    between atoms: _44  and  _45
REMARK   14  A    between atoms: _44  and  _47
REMARK   15  A    between atoms: _47  and  _48
REMARK   16  A    between atoms: _48  and  _49
REMARK   17  A    between atoms: _54  and  _56
REMARK   18  A    between atoms: _56  and  _57
REMARK   19  A    between atoms: _56  and  _59
REMARK   20  A    between atoms: _59  and  _60
REMARK   21  A    between atoms: _60  and  _61
REMARK   22  A    between atoms: _67  and  _68
REMARK   23  A    between atoms: _73  and  _75
REMARK   24  A    between atoms: _75  and  _76
REMARK   25  A    between atoms: _75  and  _78
REMARK   26  A    between atoms: _81  and  _83
REMARK   27  A    between atoms: _83  and  _84
REMARK   28  A    between atoms: _83  and  _86
REMARK   29  A    between atoms: _86  and  _87
REMARK   30  A    between atoms: _90  and  _92
REMARK   31  A    between atoms: _92  and  _93
REMARK   32  A    between atoms: _96  and  _98
REMARK   33  A    between atoms: _98  and  _99
REMARK   34  A    between atoms: _98  and  _101
REMARK   35  A    between atoms: _101  and  _102
REMARK   36  A    between atoms: _102  and  _103
REMARK   37  A    between atoms: _103  and  _104
REMARK   38  A    between atoms: _104  and  _105
REMARK   39  A    between atoms: _109  and  _111
REMARK   40  A    between atoms: _111  and  _112
REMARK   41  A    between atoms: _111  and  _114
REMARK   42  A    between atoms: _114  and  _115
REMARK   43  A    between atoms: _118  and  _120
REMARK   44  A    between atoms: _120  and  _121
REMARK   45  A    between atoms: _120  and  _123
REMARK   46  A    between atoms: _123  and  _124
REMARK   47  A    between atoms: _127  and  _129
REMARK   48  A    between atoms: _129  and  _130
REMARK   49  A    between atoms: _129  and  _132
REMARK   50  A    between atoms: _132  and  _133
REMARK   51  A    between atoms: _138  and  _139
REMARK   52  A    between atoms: _141  and  _143
REMARK   53  A    between atoms: _143  and  _144
REMARK   54  A    between atoms: _143  and  _146
REMARK   55  A    between atoms: _146  and  _147
REMARK   56  A    between atoms: _150  and  _152
REMARK   57  A    between atoms: _152  and  _153
REMARK   58  A    between atoms: _152  and  _155
REMARK   59  A    between atoms: _155  and  _156
REMARK   60  A    between atoms: _156  and  _157
REMARK   61  A    between atoms: _159  and  _161
REMARK   62  A    between atoms: _161  and  _162
REMARK   63  A    between atoms: _161  and  _164
REMARK   64  A    between atoms: _164  and  _165
REMARK   65  A    between atoms: _168  and  _170
REMARK   66  A    between atoms: _170  and  _171
REMARK   67  A    between atoms: _170  and  _173
REMARK   68  A    between atoms: _173  and  _174
REMARK   69  A    between atoms: _174  and  _175
REMARK   70  A    between atoms: _177  and  _179
REMARK   71  A    between atoms: _179  and  _180
REMARK   72  A    between atoms: _179  and  _182
REMARK   73  A    between atoms: _182  and  _183
REMARK   74  A    between atoms: _183  and  _184
REMARK   75  A    between atoms: _186  and  _188
REMARK   76  A    between atoms: _188  and  _189
REMARK   77  A    between atoms: _188  and  _191
REMARK   78  A    between atoms: _191  and  _192
REMARK   79  A    between atoms: _197  and  _199
REMARK   80  A    between atoms: _199  and  _200
REMARK   81  A    between atoms: _199  and  _202
REMARK   82  A    between atoms: _204  and  _206
REMARK   83  A    between atoms: _206  and  _207
REMARK   84  A    between atoms: _206  and  _209
REMARK   85  A    between atoms: _209  and  _210
REMARK   86  A    between atoms: _215  and  _216
REMARK   87  A    between atoms: _218  and  _220
REMARK   88  A    between atoms: _220  and  _221
REMARK   89  A    between atoms: _220  and  _223
REMARK   90  A    between atoms: _223  and  _224
REMARK   91  A    between atoms: _227  and  _229
REMARK   92  A    between atoms: _229  and  _230
REMARK   93  A    between atoms: _229  and  _232
REMARK   94  A    between atoms: _232  and  _233
REMARK   95  A    between atoms: _238  and  _239
REMARK   96  A    between atoms: _241  and  _243
REMARK   97  A    between atoms: _243  and  _244
REMARK   98  A    between atoms: _243  and  _246
REMARK   99  A    between atoms: _246  and  _247
REMARK  100  A    between atoms: _252  and  _254
REMARK  101  A    between atoms: _254  and  _255
REMARK  102  A    between atoms: _254  and  _257
REMARK  103  A    between atoms: _257  and  _258
REMARK  104  A    between atoms: _258  and  _259
REMARK  105  A    between atoms: _259  and  _260
REMARK  106  A    between atoms: _260  and  _261
REMARK  107  A    between atoms: _265  and  _267
REMARK  108  A    between atoms: _267  and  _268
REMARK  109  A    between atoms: _267  and  _270
REMARK  110  A    between atoms: _270  and  _271
REMARK  111  A    between atoms: _274  and  _276
REMARK  112  A    between atoms: _276  and  _277
REMARK  113  A    between atoms: _276  and  _279
REMARK  114  A    between atoms: _279  and  _280
REMARK  115  A    between atoms: _283  and  _285
REMARK  116  A    between atoms: _285  and  _286
REMARK  117  A    between atoms: _285  and  _288
REMARK  118  A    between atoms: _291  and  _293
REMARK  119  A    between atoms: _293  and  _294
REMARK                            x       y       z     vdW  Elec       q    Type
REMARK                         _______ _______ _______ _____ _____    ______ ____
ROOT
ATOM      1  CA  ILE A   1      28.054  47.451  12.250  0.00  0.00    +0.133 C 
ENDROOT
BRANCH   1   2
ATOM      2  N   ILE A   1      27.067  48.366  12.775  0.00  0.00    -0.239 NA
ATOM      3  H   ILE A   1      26.137  47.998  13.060  0.00  0.00    +0.142 HD
ENDBRANCH   1   2
BRANCH   1   4
ATOM      4  CB  ILE A   1      27.731  46.040  12.798  0.00  0.00    +0.023 C 
ATOM      5  CG2 ILE A   1      28.496  44.973  12.031  0.00  0.00    +0.002 C 
BRANCH   4   6
ATOM      6  CG1 ILE A   1      27.972  46.023  14.341  0.00  0.00    +0.002 C 
ATOM      7  CD1 ILE A   1      29.213  46.758  14.801  0.00  0.00    +0.000 C 
ENDBRANCH   4   6
ENDBRANCH   1   4
BRANCH   1   8
ATOM      8  C   ILE A   1      28.050  47.495  10.740  0.00  0.00    +0.224 C 
ATOM      9  O   ILE A   1      27.062  47.164  10.134  0.00  0.00    -0.287 OA
ENDBRANCH   1   8
TORSDOF 4
REMARK  Name = ../refined-set-2016/4mr3/4mr3_pocket.pdb
REMARK  119 active torsions:
REMARK  status: ('A' for Active; 'I' for Inactive)
REMARK    1  A    between atoms: _1  and  _3
REMARK    2  A    between atoms: _3  and  _4
REMARK    3  A    between atoms: _7  and  _9
REMARK    4  A    between atoms: _9  and  _10
REMARK    5  A    between atoms: _9  and  _12
REMARK    6  A    between atoms: _12  and  _13
REMARK    7  A    between atoms: _24  and  _25
REMARK    8  A    between atoms: _30  and  _32
REMARK    9  A    between atoms: _32  and  _33
REMARK   10  A    between atoms: _32  and  _35
REMARK   11  A    between atoms: _35  and  _36
REMARK   12  A    between atoms: _42  and  _44
REMARK   13  A    between atoms: _44  and  _45
REMARK   14  A    between atoms: _44  and  _47
REMARK   15  A    between atoms: _47  and  _48
REMARK   16  A    between atoms: _48  and  _49
REMARK   17  A    between atoms: _54  and  _56
REMARK   18  A    between atoms: _56  and  _57
REMARK   19  A    between atoms: _56  and  _59
REMARK   20  A    between atoms: _59  and  _60
REMARK   21  A    between atoms: _60  and  _61
REMARK   22  A    between atoms: _67  and  _68
REMARK   23  A    between atoms: _73  and  _75
REMARK   24  A    between atoms: _75  and  _76
REMARK   25  A    between atoms: _75  and  _78
REMARK   26  A    between atoms: _81  and  _83
REMARK   27  A    between atoms: _83  and  _84
REMARK   28  A    between atoms: _83  and  _86
REMARK   29  A    between atoms: _86  and  _87
REMARK   30  A    between atoms: _90  and  _92
REMARK   31  A    between atoms: _92  and  _93
REMARK   32  A    between atoms: _96  and  _98
REMARK   33  A    between atoms: _98  and  _99
REMARK   34  A    between atoms: _98  and  _101
REMARK   35  A    between atoms: _101  and  _102
REMARK   36  A    between atoms: _102  and  _103
REMARK   37  A    between atoms: _103  and  _104
REMARK   38  A    between atoms: _104  and  _105
REMARK   39  A    between atoms: _109  and  _111
REMARK   40  A    between atoms: _111  and  _112
REMARK   41  A    between atoms: _111  and  _114
REMARK   42  A    between atoms: _114  and  _115
REMARK   43  A    between atoms: _118  and  _120
REMARK   44  A    between atoms: _120  and  _121
REMARK   45  A    between atoms: _120  and  _123
REMARK   46  A    between atoms: _123  and  _124
REMARK   47  A    between atoms: _127  and  _129
REMARK   48  A    between atoms: _129  and  _130
REMARK   49  A    between atoms: _129  and  _132
REMARK   50  A    between atoms: _132  and  _133
REMARK   51  A    between atoms: _138  and  _139
REMARK   52  A    between atoms: _141  and  _143
REMARK   53  A    between atoms: _143  and  _144
REMARK   54  A    between atoms: _143  and  _146
REMARK   55  A    between atoms: _146  and  _147
REMARK   56  A    between atoms: _150  and  _152
REMARK   57  A    between atoms: _152  and  _153
REMARK   58  A    between atoms: _152  and  _155
REMARK   59  A    between atoms: _155  and  _156
REMARK   60  A    between atoms: _156  and  _157
REMARK   61  A    between atoms: _159  and  _161
REMARK   62  A    between atoms: _161  and  _162
REMARK   63  A    between atoms: _161  and  _164
REMARK   64  A    between atoms: _164  and  _165
REMARK   65  A    between atoms: _168  and  _170
REMARK   66  A    between atoms: _170  and  _171
REMARK   67  A    between atoms: _170  and  _173
REMARK   68  A    between atoms: _173  and  _174
REMARK   69  A    between atoms: _174  and  _175
REMARK   70  A    between atoms: _177  and  _179
REMARK   71  A    between atoms: _179  and  _180
REMARK   72  A    between atoms: _179  and  _182
REMARK   73  A    between atoms: _182  and  _183
REMARK   74  A    between atoms: _183  and  _184
REMARK   75  A    between atoms: _186  and  _188
REMARK   76  A    between atoms: _188  and  _189
REMARK   77  A    between atoms: _188  and  _191
REMARK   78  A    between atoms: _191  and  _192
REMARK   79  A    between atoms: _197  and  _199
REMARK   80  A    between atoms: _199  and  _200
REMARK   81  A    between atoms: _199  and  _202
REMARK   82  A    between atoms: _204  and  _206
REMARK   83  A    between atoms: _206  and  _207
REMARK   84  A    between atoms: _206  and  _209
REMARK   85  A    between atoms: _209  and  _210
REMARK   86  A    between atoms: _215  and  _216
REMARK   87  A    between atoms: _218  and  _220
REMARK   88  A    between atoms: _220  and  _221
REMARK   89  A    between atoms: _220  and  _223
REMARK   90  A    between atoms: _223  and  _224
REMARK   91  A    between atoms: _227  and  _229
REMARK   92  A    between atoms: _229  and  _230
REMARK   93  A    between atoms: _229  and  _232
REMARK   94  A    between atoms: _232  and  _233
REMARK   95  A    between atoms: _238  and  _239
REMARK   96  A    between atoms: _241  and  _243
REMARK   97  A    between atoms: _243  and  _244
REMARK   98  A    between atoms: _243  and  _246
REMARK   99  A    between atoms: _246  and  _247
REMARK  100  A    between atoms: _252  and  _254
REMARK  101  A    between atoms: _254  and  _255
REMARK  102  A    between atoms: _254  and  _257
REMARK  103  A    between atoms: _257  and  _258
REMARK  104  A    between atoms: _258  and  _259
REMARK  105  A    between atoms: _259  and  _260
REMARK  106  A    between atoms: _260  and  _261
REMARK  107  A    between atoms: _265  and  _267
REMARK  108  A    between atoms: _267  and  _268
REMARK  109  A    between atoms: _267  and  _270
REMARK  110  A    between atoms: _270  and  _271
REMARK  111  A    between atoms: _274  and  _276
REMARK  112  A    between atoms: _276  and  _277
REMARK  113  A    between atoms: _276  and  _279
REMARK  114  A    between atoms: _279  and  _280
REMARK  115  A    between atoms: _283  and  _285
REMARK  116  A    between atoms: _285  and  _286
REMARK  117  A    between atoms: _285  and  _288
REMARK  118  A    between atoms: _291  and  _293
REMARK  119  A    between atoms: _293  and  _294
REMARK                            x       y       z     vdW  Elec       q    Type
REMARK                         _______ _______ _______ _____ _____    ______ ____
ROOT
ATOM      1  CA  ASP A   2      31.099  35.642  13.021  0.00  0.00    +0.160 C 
ENDROOT
BRANCH   1   4
ATOM      2  C   MET A   1      31.102  37.875  12.042  0.00  0.00    +0.238 C 
ATOM      3  O   MET A   1      30.817  38.424  13.105  0.00  0.00    -0.274 OA
ATOM      4  N   ASP A   2      31.295  36.575  11.917  0.00  0.00    -0.297 N 
ATOM      5  H   ASP A   2      31.599  36.201  10.995  0.00  0.00    +0.150 HD
BRANCH   2   6
ATOM      6  CA  MET A   1      31.272  38.691  10.775  0.00  0.00    +0.146 C 
BRANCH   6   7
ATOM      7  N   MET A   1      30.441  39.902  10.816  0.00  0.00    -0.238 NA
ATOM      8  H   MET A   1      30.146  40.294  11.733  0.00  0.00    +0.142 HD
ENDBRANCH   6   7
BRANCH   6   9
ATOM      9  CB  MET A   1      32.739  39.067  10.563  0.00  0.00    +0.038 C 
BRANCH   9  10
ATOM     10  CG  MET A   1      33.681  37.893  10.292  0.00  0.00    +0.060 C 
BRANCH  10  11
ATOM     11  SD  MET A   1      33.170  36.795   8.964  0.00  0.00    -0.139 S 
ATOM     12  CE  MET A   1      32.943  37.920   7.585  0.00  0.00    +0.069 C 
ENDBRANCH  10  11
ENDBRANCH   9  10
ENDBRANCH   6   9
ENDBRANCH   2   6
ENDBRANCH   1   4
BRANCH   1  13
ATOM     13  C   ASP A   2      31.916  34.392  12.730  0.00  0.00    +0.241 C 
ATOM     14  N   MET A   3      32.116  33.571  13.751  0.00  0.00    -0.298 N 
ATOM     15  H   MET A   3      31.697  33.791  14.677  0.00  0.00    +0.150 HD
ATOM     16  O   ASP A   2      32.334  34.171  11.595  0.00  0.00    -0.273 OA
BRANCH  14  17
ATOM     17  CA  MET A   3      32.935  32.336  13.587  0.00  0.00    +0.138 C 
BRANCH  17  18
ATOM     18  C   MET A   3      32.216  31.254  12.784  0.00  0.00    +0.227 C 
ATOM     19  O   MET A   3      32.862  30.362  12.215  0.00  0.00    -0.286 OA
ENDBRANCH  17  18
BRANCH  17  20
ATOM     20  CB  MET A   3      33.374  31.715  14.925  0.00  0.00    +0.039 C 
BRANCH  20  21
ATOM     21  CG  MET A   3      34.292  32.607  15.716  0.00  0.00    +0.060 C 
BRANCH  21  22
ATOM     22  SD  MET A   3      35.281  31.675  16.906  0.00  0.00    -0.139 S 
ATOM     23  CE  MET A   3      33.935  31.114  17.928  0.00  0.00    +0.069 C 
ENDBRANCH  21  22
ENDBRANCH  20  21
ENDBRANCH  17  20
ENDBRANCH  14  17
ENDBRANCH   1  13
BRANCH   1  24
ATOM     24  CB  ASP A   2      29.616  35.251  13.174  0.00  0.00    +0.143 C 
BRANCH  24  25
ATOM     25  CG  ASP A   2      29.103  34.543  11.992  0.00  0.00    +0.367 C 
ATOM     26  OD2 ASP A   2      29.033  33.300  12.037  0.00  0.00    -0.246 OA
ATOM     27  OD1 ASP A   2      28.853  35.191  10.952  0.00  0.00    -0.246 OA
ENDBRANCH  24  25
ENDBRANCH   1  24
TORSDOF 14
REMARK  Name = ../refined-set-2016/4mr3/4mr3_pocket.pdb
REMARK  119 active torsions:
REMARK  status: ('A' for Active; 'I' for Inactive)
REMARK    1  A    between atoms: _1  and  _3
REMARK    2  A    between atoms: _3  and  _4
REMARK    3  A    between atoms: _7  and  _9
REMARK    4  A    between atoms: _9  and  _10
REMARK    5  A    between atoms: _9  and  _12
REMARK    6  A    between atoms: _12  and  _13
REMARK    7  A    between atoms: _24  and  _25
REMARK    8  A    between atoms: _30  and  _32
REMARK    9  A    between atoms: _32  and  _33
REMARK   10  A    between atoms: _32  and  _35
REMARK   11  A    between atoms: _35  and  _36
REMARK   12  A    between atoms: _42  and  _44
REMARK   13  A    between atoms: _44  and  _45
REMARK   14  A    between atoms: _44  and  _47
REMARK   15  A    between atoms: _47  and  _48
REMARK   16  A    between atoms: _48  and  _49
REMARK   17  A    between atoms: _54  and  _56
REMARK   18  A    between atoms: _56  and  _57
REMARK   19  A    between atoms: _56  and  _59
REMARK   20  A    between atoms: _59  and  _60
REMARK   21  A    between atoms: _60  and  _61
REMARK   22  A    between atoms: _67  and  _68
REMARK   23  A    between atoms: _73  and  _75
REMARK   24  A    between atoms: _75  and  _76
REMARK   25  A    between atoms: _75  and  _78
REMARK   26  A    between atoms: _81  and  _83
REMARK   27  A    between atoms: _83  and  _84
REMARK   28  A    between atoms: _83  and  _86
REMARK   29  A    between atoms: _86  and  _87
REMARK   30  A    between atoms: _90  and  _92
REMARK   31  A    between atoms: _92  and  _93
REMARK   32  A    between atoms: _96  and  _98
REMARK   33  A    between atoms: _98  and  _99
REMARK   34  A    between atoms: _98  and  _101
REMARK   35  A    between atoms: _101  and  _102
REMARK   36  A    between atoms: _102  and  _103
REMARK   37  A    between atoms: _103  and  _104
REMARK   38  A    between atoms: _104  and  _105
REMARK   39  A    between atoms: _109  and  _111
REMARK   40  A    between atoms: _111  and  _112
REMARK   41  A    between atoms: _111  and  _114
REMARK   42  A    between atoms: _114  and  _115
REMARK   43  A    between atoms: _118  and  _120
REMARK   44  A    between atoms: _120  and  _121
REMARK   45  A    between atoms: _120  and  _123
REMARK   46  A    between atoms: _123  and  _124
REMARK   47  A    between atoms: _127  and  _129
REMARK   48  A    between atoms: _129  and  _130
REMARK   49  A    between atoms: _129  and  _132
REMARK   50  A    between atoms: _132  and  _133
REMARK   51  A    between atoms: _138  and  _139
REMARK   52  A    between atoms: _141  and  _143
REMARK   53  A    between atoms: _143  and  _144
REMARK   54  A    between atoms: _143  and  _146
REMARK   55  A    between atoms: _146  and  _147
REMARK   56  A    between atoms: _150  and  _152
REMARK   57  A    between atoms: _152  and  _153
REMARK   58  A    between atoms: _152  and  _155
REMARK   59  A    between atoms: _155  and  _156
REMARK   60  A    between atoms: _156  and  _157
REMARK   61  A    between atoms: _159  and  _161
REMARK   62  A    between atoms: _161  and  _162
REMARK   63  A    between atoms: _161  and  _164
REMARK   64  A    between atoms: _164  and  _165
REMARK   65  A    between atoms: _168  and  _170
REMARK   66  A    between atoms: _170  and  _171
REMARK   67  A    between atoms: _170  and  _173
REMARK   68  A    between atoms: _173  and  _174
REMARK   69  A    between atoms: _174  and  _175
REMARK   70  A    between atoms: _177  and  _179
REMARK   71  A    between atoms: _179  and  _180
REMARK   72  A    between atoms: _179  and  _182
REMARK   73  A    between atoms: _182  and  _183
REMARK   74  A    between atoms: _183  and  _184
REMARK   75  A    between atoms: _186  and  _188
REMARK   76  A    between atoms: _188  and  _189
REMARK   77  A    between atoms: _188  and  _191
REMARK   78  A    between atoms: _191  and  _192
REMARK   79  A    between atoms: _197  and  _199
REMARK   80  A    between atoms: _199  and  _200
REMARK   81  A    between atoms: _199  and  _202
REMARK   82  A    between atoms: _204  and  _206
REMARK   83  A    between atoms: _206  and  _207
REMARK   84  A    between atoms: _206  and  _209
REMARK   85  A    between atoms: _209  and  _210
REMARK   86  A    between atoms: _215  and  _216
REMARK   87  A    between atoms: _218  and  _220
REMARK   88  A    between atoms: _220  and  _221
REMARK   89  A    between atoms: _220  and  _223
REMARK   90  A    between atoms: _223  and  _224
REMARK   91  A    between atoms: _227  and  _229
REMARK   92  A    between atoms: _229  and  _230
REMARK   93  A    between atoms: _229  and  _232
REMARK   94  A    between atoms: _232  and  _233
REMARK   95  A    between atoms: _238  and  _239
REMARK   96  A    between atoms: _241  and  _243
REMARK   97  A    between atoms: _243  and  _244
REMARK   98  A    between atoms: _243  and  _246
REMARK   99  A    between atoms: _246  and  _247
REMARK  100  A    between atoms: _252  and  _254
REMARK  101  A    between atoms: _254  and  _255
REMARK  102  A    between atoms: _254  and  _257
REMARK  103  A    between atoms: _257  and  _258
REMARK  104  A    between atoms: _258  and  _259
REMARK  105  A    between atoms: _259  and  _260
REMARK  106  A    between atoms: _260  and  _261
REMARK  107  A    between atoms: _265  and  _267
REMARK  108  A    between atoms: _267  and  _268
REMARK  109  A    between atoms: _267  and  _270
REMARK  110  A    between atoms: _270  and  _271
REMARK  111  A    between atoms: _274  and  _276
REMARK  112  A    between atoms: _276  and  _277
REMARK  113  A    between atoms: _276  and  _279
REMARK  114  A    between atoms: _279  and  _280
REMARK  115  A    between atoms: _283  and  _285
REMARK  116  A    between atoms: _285  and  _286
REMARK  117  A    between atoms: _285  and  _288
REMARK  118  A    between atoms: _291  and  _293
REMARK  119  A    between atoms: _293  and  _294
REMARK                            x       y       z     vdW  Elec       q    Type
REMARK                         _______ _______ _______ _____ _____    ______ ____
ROOT
ATOM      1  CA  MET A   1      34.281  39.994  14.463  0.00  0.00    +0.134 C 
ENDROOT
BRANCH   1   2
ATOM      2  N   MET A   1      35.261  40.533  13.520  0.00  0.00    -0.239 NA
ATOM      3  H   MET A   1      35.902  39.895  13.006  0.00  0.00    +0.142 HD
ENDBRANCH   1   2
BRANCH   1   4
ATOM      4  C   MET A   1      34.469  40.605  15.851  0.00  0.00    +0.224 C 
ATOM      5  O   MET A   1      33.519  41.053  16.474  0.00  0.00    -0.287 OA
ENDBRANCH   1   4
BRANCH   1   6
ATOM      6  CB  MET A   1      34.389  38.452  14.544  0.00  0.00    +0.037 C 
BRANCH   6   7
ATOM      7  CG  MET A   1      33.450  37.822  15.544  0.00  0.00    +0.059 C 
BRANCH   7   8
ATOM      8  SD  MET A   1      33.796  36.060  15.703  0.00  0.00    -0.139 S 
ATOM      9  CE  MET A   1      35.175  36.081  16.844  0.00  0.00    +0.069 C 
ENDBRANCH   7   8
ENDBRANCH   6   7
ENDBRANCH   1   6
TORSDOF 5
REMARK  Name = ../refined-set-2016/4mr3/4mr3_pocket.pdb
REMARK  119 active torsions:
REMARK  status: ('A' for Active; 'I' for Inactive)
REMARK    1  A    between atoms: _1  and  _3
REMARK    2  A    between atoms: _3  and  _4
REMARK    3  A    between atoms: _7  and  _9
REMARK    4  A    between atoms: _9  and  _10
REMARK    5  A    between atoms: _9  and  _12
REMARK    6  A    between atoms: _12  and  _13
REMARK    7  A    between atoms: _24  and  _25
REMARK    8  A    between atoms: _30  and  _32
REMARK    9  A    between atoms: _32  and  _33
REMARK   10  A    between atoms: _32  and  _35
REMARK   11  A    between atoms: _35  and  _36
REMARK   12  A    between atoms: _42  and  _44
REMARK   13  A    between atoms: _44  and  _45
REMARK   14  A    between atoms: _44  and  _47
REMARK   15  A    between atoms: _47  and  _48
REMARK   16  A    between atoms: _48  and  _49
REMARK   17  A    between atoms: _54  and  _56
REMARK   18  A    between atoms: _56  and  _57
REMARK   19  A    between atoms: _56  and  _59
REMARK   20  A    between atoms: _59  and  _60
REMARK   21  A    between atoms: _60  and  _61
REMARK   22  A    between atoms: _67  and  _68
REMARK   23  A    between atoms: _73  and  _75
REMARK   24  A    between atoms: _75  and  _76
REMARK   25  A    between atoms: _75  and  _78
REMARK   26  A    between atoms: _81  and  _83
REMARK   27  A    between atoms: _83  and  _84
REMARK   28  A    between atoms: _83  and  _86
REMARK   29  A    between atoms: _86  and  _87
REMARK   30  A    between atoms: _90  and  _92
REMARK   31  A    between atoms: _92  and  _93
REMARK   32  A    between atoms: _96  and  _98
REMARK   33  A    between atoms: _98  and  _99
REMARK   34  A    between atoms: _98  and  _101
REMARK   35  A    between atoms: _101  and  _102
REMARK   36  A    between atoms: _102  and  _103
REMARK   37  A    between atoms: _103  and  _104
REMARK   38  A    between atoms: _104  and  _105
REMARK   39  A    between atoms: _109  and  _111
REMARK   40  A    between atoms: _111  and  _112
REMARK   41  A    between atoms: _111  and  _114
REMARK   42  A    between atoms: _114  and  _115
REMARK   43  A    between atoms: _118  and  _120
REMARK   44  A    between atoms: _120  and  _121
REMARK   45  A    between atoms: _120  and  _123
REMARK   46  A    between atoms: _123  and  _124
REMARK   47  A    between atoms: _127  and  _129
REMARK   48  A    between atoms: _129  and  _130
REMARK   49  A    between atoms: _129  and  _132
REMARK   50  A    between atoms: _132  and  _133
REMARK   51  A    between atoms: _138  and  _139
REMARK   52  A    between atoms: _141  and  _143
REMARK   53  A    between atoms: _143  and  _144
REMARK   54  A    between atoms: _143  and  _146
REMARK   55  A    between atoms: _146  and  _147
REMARK   56  A    between atoms: _150  and  _152
REMARK   57  A    between atoms: _152  and  _153
REMARK   58  A    between atoms: _152  and  _155
REMARK   59  A    between atoms: _155  and  _156
REMARK   60  A    between atoms: _156  and  _157
REMARK   61  A    between atoms: _159  and  _161
REMARK   62  A    between atoms: _161  and  _162
REMARK   63  A    between atoms: _161  and  _164
REMARK   64  A    between atoms: _164  and  _165
REMARK   65  A    between atoms: _168  and  _170
REMARK   66  A    between atoms: _170  and  _171
REMARK   67  A    between atoms: _170  and  _173
REMARK   68  A    between atoms: _173  and  _174
REMARK   69  A    between atoms: _174  and  _175
REMARK   70  A    between atoms: _177  and  _179
REMARK   71  A    between atoms: _179  and  _180
REMARK   72  A    between atoms: _179  and  _182
REMARK   73  A    between atoms: _182  and  _183
REMARK   74  A    between atoms: _183  and  _184
REMARK   75  A    between atoms: _186  and  _188
REMARK   76  A    between atoms: _188  and  _189
REMARK   77  A    between atoms: _188  and  _191
REMARK   78  A    between atoms: _191  and  _192
REMARK   79  A    between atoms: _197  and  _199
REMARK   80  A    between atoms: _199  and  _200
REMARK   81  A    between atoms: _199  and  _202
REMARK   82  A    between atoms: _204  and  _206
REMARK   83  A    between atoms: _206  and  _207
REMARK   84  A    between atoms: _206  and  _209
REMARK   85  A    between atoms: _209  and  _210
REMARK   86  A    between atoms: _215  and  _216
REMARK   87  A    between atoms: _218  and  _220
REMARK   88  A    between atoms: _220  and  _221
REMARK   89  A    between atoms: _220  and  _223
REMARK   90  A    between atoms: _223  and  _224
REMARK   91  A    between atoms: _227  and  _229
REMARK   92  A    between atoms: _229  and  _230
REMARK   93  A    between atoms: _229  and  _232
REMARK   94  A    between atoms: _232  and  _233
REMARK   95  A    between atoms: _238  and  _239
REMARK   96  A    between atoms: _241  and  _243
REMARK   97  A    between atoms: _243  and  _244
REMARK   98  A    between atoms: _243  and  _246
REMARK   99  A    between atoms: _246  and  _247
REMARK  100  A    between atoms: _252  and  _254
REMARK  101  A    between atoms: _254  and  _255
REMARK  102  A    between atoms: _254  and  _257
REMARK  103  A    between atoms: _257  and  _258
REMARK  104  A    between atoms: _258  and  _259
REMARK  105  A    between atoms: _259  and  _260
REMARK  106  A    between atoms: _260  and  _261
REMARK  107  A    between atoms: _265  and  _267
REMARK  108  A    between atoms: _267  and  _268
REMARK  109  A    between atoms: _267  and  _270
REMARK  110  A    between atoms: _270  and  _271
REMARK  111  A    between atoms: _274  and  _276
REMARK  112  A    between atoms: _276  and  _277
REMARK  113  A    between atoms: _276  and  _279
REMARK  114  A    between atoms: _279  and  _280
REMARK  115  A    between atoms: _283  and  _285
REMARK  116  A    between atoms: _285  and  _286
REMARK  117  A    between atoms: _285  and  _288
REMARK  118  A    between atoms: _291  and  _293
REMARK  119  A    between atoms: _293  and  _294
REMARK                            x       y       z     vdW  Elec       q    Type
REMARK                         _______ _______ _______ _____ _____    ______ ____
ROOT
ATOM      1  C   ILE A   4      30.611  49.076  19.442  0.00  0.00    +0.241 C 
ATOM      2  O   ILE A   4      30.101  50.166  19.638  0.00  0.00    -0.273 OA
ATOM      3  N   TYR A   5      29.916  47.947  19.446  0.00  0.00    -0.297 N 
ATOM      4  H   TYR A   5      30.413  47.054  19.252  0.00  0.00    +0.150 HD
ENDROOT
BRANCH   3   5
ATOM      5  CA  TYR A   5      28.468  47.906  19.714  0.00  0.00    +0.153 C 
BRANCH   5   6
ATOM      6  C   TYR A   5      28.101  47.752  21.188  0.00  0.00    +0.241 C 
ATOM      7  N   ASN A   6      28.754  46.820  21.878  0.00  0.00    -0.297 N 
ATOM      8  H   ASN A   6      29.589  46.369  21.452  0.00  0.00    +0.150 HD
ATOM      9  O   TYR A   5      27.223  48.462  21.678  0.00  0.00    -0.273 OA
BRANCH   7  10
ATOM     10  CA  ASN A   6      28.337  46.414  23.206  0.00  0.00    +0.158 C 
BRANCH  10  11
ATOM     11  C   ASN A   6      28.911  47.316  24.265  0.00  0.00    +0.241 C 
ATOM     12  N   LYS A   7      28.165  47.506  25.347  0.00  0.00    -0.298 N 
ATOM     13  H   LYS A   7      27.229  47.058  25.421  0.00  0.00    +0.150 HD
ATOM     14  O   ASN A   6      30.029  47.815  24.107  0.00  0.00    -0.273 OA
BRANCH  12  15
ATOM     15  CA  LYS A   7      28.665  48.347  26.433  0.00  0.00    +0.137 C 
BRANCH  15  16
ATOM     16  C   LYS A   7      29.908  47.723  27.083  0.00  0.00    +0.227 C 
ATOM     17  O   LYS A   7      29.999  46.511  27.270  0.00  0.00    -0.286 OA
ENDBRANCH  15  16
BRANCH  15  18
ATOM     18  CB  LYS A   7      27.602  48.563  27.500  0.00  0.00    +0.028 C 
BRANCH  18  19
ATOM     19  CG  LYS A   7      26.278  49.162  27.027  0.00  0.00    -0.000 C 
BRANCH  19  20
ATOM     20  CD  LYS A   7      25.250  49.203  28.171  0.00  0.00    -0.024 C 
BRANCH  20  21
ATOM     21  CE  LYS A   7      25.190  47.921  29.020  0.00  0.00    -0.086 C 
BRANCH  21  22
ATOM     22  NZ  LYS A   7      26.128  47.909  30.194  0.00  0.00    +0.380 N 
ATOM     23  HZ1 LYS A   7      25.900  48.703  30.826  0.00  0.00    -0.089 HD
ATOM     24  HZ2 LYS A   7      26.024  47.012  30.710  0.00  0.00    -0.089 HD
ATOM     25  HZ3 LYS A   7      27.107  48.004  29.855  0.00  0.00    -0.089 HD
ENDBRANCH  21  22
ENDBRANCH  20  21
ENDBRANCH  19  20
ENDBRANCH  18  19
ENDBRANCH  15  18
ENDBRANCH  12  15
ENDBRANCH  10  11
BRANCH  10  26
ATOM     26  CB  ASN A   6      28.714  44.987  23.474  0.00  0.00    +0.114 C 
BRANCH  26  27
ATOM     27  CG  ASN A   6      27.837  44.048  22.705  0.00  0.00    +0.222 C 
ATOM     28  OD1 ASN A   6      26.655  43.872  23.014  0.00  0.00    -0.275 OA
ATOM     29  ND2 ASN A   6      28.398  43.472  21.643  0.00  0.00    -0.329 N 
ATOM     30 HD21 ASN A   6      29.399  43.651  21.422  0.00  0.00    +0.145 HD
ATOM     31 HD22 ASN A   6      27.835  42.844  21.034  0.00  0.00    +0.145 HD
ENDBRANCH  26  27
ENDBRANCH  10  26
ENDBRANCH   7  10
ENDBRANCH   5   6
BRANCH   5  32
ATOM     32  CB  TYR A   5      27.787  46.798  18.880  0.00  0.00    +0.055 C 
BRANCH  32  33
ATOM     33  CG  TYR A   5      26.305  46.733  19.132  0.00  0.00    -0.020 A 
ATOM     34  CD2 TYR A   5      25.777  45.873  20.050  0.00  0.00    -0.001 A 
ATOM     35  CE2 TYR A   5      24.411  45.823  20.312  0.00  0.00    +0.036 A 
ATOM     36  CZ  TYR A   5      23.558  46.693  19.656  0.00  0.00    +0.134 A 
ATOM     37  CE1 TYR A   5      24.086  47.589  18.724  0.00  0.00    +0.036 A 
ATOM     38  CD1 TYR A   5      25.439  47.604  18.477  0.00  0.00    -0.001 A 
BRANCH  36  39
ATOM     39  OH  TYR A   5      22.199  46.710  19.949  0.00  0.00    -0.506 OA
ATOM     40  HH  TYR A   5      22.071  46.934  20.905  0.00  0.00    +0.292 HD
ENDBRANCH  36  39
ENDBRANCH  32  33
ENDBRANCH   5  32
ENDBRANCH   3   5
BRANCH   1  41
ATOM     41  CA  ILE A   4      32.117  48.989  19.180  0.00  0.00    +0.149 C 
BRANCH  41  44
ATOM     42  C   TYR A   3      33.073  47.433  20.744  0.00  0.00    +0.241 C 
ATOM     43  O   TYR A   3      32.985  48.275  21.629  0.00  0.00    -0.273 OA
ATOM     44  N   ILE A   4      32.677  47.673  19.506  0.00  0.00    -0.297 N 
ATOM     45  H   ILE A   4      32.761  46.939  18.774  0.00  0.00    +0.150 HD
BRANCH  42  46
ATOM     46  CA  TYR A   3      33.638  46.061  21.069  0.00  0.00    +0.153 C 
BRANCH  46  49
ATOM     47  C   CYS A   2      31.906  44.536  20.336  0.00  0.00    +0.242 C 
ATOM     48  O   CYS A   2      31.072  45.067  21.090  0.00  0.00    -0.273 OA
ATOM     49  N   TYR A   3      33.126  45.008  20.172  0.00  0.00    -0.297 N 
ATOM     50  H   TYR A   3      33.728  44.637  19.409  0.00  0.00    +0.150 HD
BRANCH  47  51
ATOM     51  CA  CYS A   2      31.550  43.290  19.508  0.00  0.00    +0.160 C 
BRANCH  51  53
ATOM     52  C   ASN A   1      31.543  44.476  17.434  0.00  0.00    +0.239 C 
ATOM     53  N   CYS A   2      32.001  43.459  18.145  0.00  0.00    -0.296 N 
ATOM     54  H   CYS A   2      32.678  42.789  17.728  0.00  0.00    +0.150 HD
ATOM     55  O   ASN A   1      30.712  45.304  17.888  0.00  0.00    -0.274 OA
BRANCH  52  56
ATOM     56  CA  ASN A   1      32.043  44.567  15.998  0.00  0.00    +0.154 C 
BRANCH  56  57
ATOM     57  N   ASN A   1      33.491  44.371  15.934  0.00  0.00    -0.238 NA
ATOM     58  H   ASN A   1      33.889  43.627  15.326  0.00  0.00    +0.142 HD
ENDBRANCH  56  57
BRANCH  56  59
ATOM     59  CB  ASN A   1      31.322  43.496  15.127  0.00  0.00    +0.111 C 
BRANCH  59  60
ATOM     60  CG  ASN A   1      31.595  43.663  13.647  0.00  0.00    +0.221 C 
ATOM     61  OD1 ASN A   1      32.134  44.680  13.180  0.00  0.00    -0.275 OA
ATOM     62  ND2 ASN A   1      31.192  42.644  12.884  0.00  0.00    -0.329 N 
ATOM     63 HD21 ASN A   1      30.745  41.812  13.320  0.00  0.00    +0.145 HD
ATOM     64 HD22 ASN A   1      31.325  42.682  11.853  0.00  0.00    +0.145 HD
ENDBRANCH  59  60
ENDBRANCH  56  59
ENDBRANCH  52  56
ENDBRANCH  51  53
BRANCH  51  65
ATOM     65  CB  CYS A   2      32.128  42.011  20.063  0.00  0.00    +0.098 C 
ATOM     66  SG  CYS A   2      31.559  41.612  21.722  0.00  0.00    -0.080 S 
ENDBRANCH  51  65
ENDBRANCH  47  51
ENDBRANCH  46  49
BRANCH  46  67
ATOM     67  CB  TYR A   3      35.149  46.126  21.029  0.00  0.00    +0.055 C 
BRANCH  67  68
ATOM     68  CG  TYR A   3      35.868  44.874  21.502  0.00  0.00    -0.020 A 
ATOM     69  CD2 TYR A   3      35.468  44.222  22.649  0.00  0.00    -0.001 A 
ATOM     70  CE2 TYR A   3      36.136  43.103  23.114  0.00  0.00    +0.036 A 
ATOM     71  CZ  TYR A   3      37.231  42.627  22.394  0.00  0.00    +0.134 A 
ATOM     72  CE1 TYR A   3      37.663  43.285  21.272  0.00  0.00    +0.036 A 
ATOM     73  CD1 TYR A   3      36.988  44.404  20.846  0.00  0.00    -0.001 A 
BRANCH  71  74
ATOM     74  OH  TYR A   3      37.924  41.538  22.881  0.00  0.00    -0.506 OA
ATOM     75  HH  TYR A   3      38.847  41.812  23.111  0.00  0.00    +0.292 HD
ENDBRANCH  71  74
ENDBRANCH  67  68
ENDBRANCH  46  67
ENDBRANCH  42  46
ENDBRANCH  41  44
BRANCH  41  76
ATOM     76  CB  ILE A   4      32.526  49.524  17.774  0.00  0.00    +0.027 C 
ATOM     77  CG2 ILE A   4      34.038  49.497  17.596  0.00  0.00    +0.002 C 
BRANCH  76  78
ATOM     78  CG1 ILE A   4      31.809  48.723  16.683  0.00  0.00    +0.002 C 
ATOM     79  CD1 ILE A   4      32.013  49.311  15.311  0.00  0.00    +0.000 C 
ENDBRANCH  76  78
ENDBRANCH  41  76
ENDBRANCH   1  41
TORSDOF 32
REMARK  Name = ../refined-set-2016/4mr3/4mr3_pocket.pdb
REMARK  119 active torsions:
REMARK  status: ('A' for Active; 'I' for Inactive)
REMARK    1  A    between atoms: _1  and  _3
REMARK    2  A    between atoms: _3  and  _4
REMARK    3  A    between atoms: _7  and  _9
REMARK    4  A    between atoms: _9  and  _10
REMARK    5  A    between atoms: _9  and  _12
REMARK    6  A    between atoms: _12  and  _13
REMARK    7  A    between atoms: _24  and  _25
REMARK    8  A    between atoms: _30  and  _32
REMARK    9  A    between atoms: _32  and  _33
REMARK   10  A    between atoms: _32  and  _35
REMARK   11  A    between atoms: _35  and  _36
REMARK   12  A    between atoms: _42  and  _44
REMARK   13  A    between atoms: _44  and  _45
REMARK   14  A    between atoms: _44  and  _47
REMARK   15  A    between atoms: _47  and  _48
REMARK   16  A    between atoms: _48  and  _49
REMARK   17  A    between atoms: _54  and  _56
REMARK   18  A    between atoms: _56  and  _57
REMARK   19  A    between atoms: _56  and  _59
REMARK   20  A    between atoms: _59  and  _60
REMARK   21  A    between atoms: _60  and  _61
REMARK   22  A    between atoms: _67  and  _68
REMARK   23  A    between atoms: _73  and  _75
REMARK   24  A    between atoms: _75  and  _76
REMARK   25  A    between atoms: _75  and  _78
REMARK   26  A    between atoms: _81  and  _83
REMARK   27  A    between atoms: _83  and  _84
REMARK   28  A    between atoms: _83  and  _86
REMARK   29  A    between atoms: _86  and  _87
REMARK   30  A    between atoms: _90  and  _92
REMARK   31  A    between atoms: _92  and  _93
REMARK   32  A    between atoms: _96  and  _98
REMARK   33  A    between atoms: _98  and  _99
REMARK   34  A    between atoms: _98  and  _101
REMARK   35  A    between atoms: _101  and  _102
REMARK   36  A    between atoms: _102  and  _103
REMARK   37  A    between atoms: _103  and  _104
REMARK   38  A    between atoms: _104  and  _105
REMARK   39  A    between atoms: _109  and  _111
REMARK   40  A    between atoms: _111  and  _112
REMARK   41  A    between atoms: _111  and  _114
REMARK   42  A    between atoms: _114  and  _115
REMARK   43  A    between atoms: _118  and  _120
REMARK   44  A    between atoms: _120  and  _121
REMARK   45  A    between atoms: _120  and  _123
REMARK   46  A    between atoms: _123  and  _124
REMARK   47  A    between atoms: _127  and  _129
REMARK   48  A    between atoms: _129  and  _130
REMARK   49  A    between atoms: _129  and  _132
REMARK   50  A    between atoms: _132  and  _133
REMARK   51  A    between atoms: _138  and  _139
REMARK   52  A    between atoms: _141  and  _143
REMARK   53  A    between atoms: _143  and  _144
REMARK   54  A    between atoms: _143  and  _146
REMARK   55  A    between atoms: _146  and  _147
REMARK   56  A    between atoms: _150  and  _152
REMARK   57  A    between atoms: _152  and  _153
REMARK   58  A    between atoms: _152  and  _155
REMARK   59  A    between atoms: _155  and  _156
REMARK   60  A    between atoms: _156  and  _157
REMARK   61  A    between atoms: _159  and  _161
REMARK   62  A    between atoms: _161  and  _162
REMARK   63  A    between atoms: _161  and  _164
REMARK   64  A    between atoms: _164  and  _165
REMARK   65  A    between atoms: _168  and  _170
REMARK   66  A    between atoms: _170  and  _171
REMARK   67  A    between atoms: _170  and  _173
REMARK   68  A    between atoms: _173  and  _174
REMARK   69  A    between atoms: _174  and  _175
REMARK   70  A    between atoms: _177  and  _179
REMARK   71  A    between atoms: _179  and  _180
REMARK   72  A    between atoms: _179  and  _182
REMARK   73  A    between atoms: _182  and  _183
REMARK   74  A    between atoms: _183  and  _184
REMARK   75  A    between atoms: _186  and  _188
REMARK   76  A    between atoms: _188  and  _189
REMARK   77  A    between atoms: _188  and  _191
REMARK   78  A    between atoms: _191  and  _192
REMARK   79  A    between atoms: _197  and  _199
REMARK   80  A    between atoms: _199  and  _200
REMARK   81  A    between atoms: _199  and  _202
REMARK   82  A    between atoms: _204  and  _206
REMARK   83  A    between atoms: _206  and  _207
REMARK   84  A    between atoms: _206  and  _209
REMARK   85  A    between atoms: _209  and  _210
REMARK   86  A    between atoms: _215  and  _216
REMARK   87  A    between atoms: _218  and  _220
REMARK   88  A    between atoms: _220  and  _221
REMARK   89  A    between atoms: _220  and  _223
REMARK   90  A    between atoms: _223  and  _224
REMARK   91  A    between atoms: _227  and  _229
REMARK   92  A    between atoms: _229  and  _230
REMARK   93  A    between atoms: _229  and  _232
REMARK   94  A    between atoms: _232  and  _233
REMARK   95  A    between atoms: _238  and  _239
REMARK   96  A    between atoms: _241  and  _243
REMARK   97  A    between atoms: _243  and  _244
REMARK   98  A    between atoms: _243  and  _246
REMARK   99  A    between atoms: _246  and  _247
REMARK  100  A    between atoms: _252  and  _254
REMARK  101  A    between atoms: _254  and  _255
REMARK  102  A    between atoms: _254  and  _257
REMARK  103  A    between atoms: _257  and  _258
REMARK  104  A    between atoms: _258  and  _259
REMARK  105  A    between atoms: _259  and  _260
REMARK  106  A    between atoms: _260  and  _261
REMARK  107  A    between atoms: _265  and  _267
REMARK  108  A    between atoms: _267  and  _268
REMARK  109  A    between atoms: _267  and  _270
REMARK  110  A    between atoms: _270  and  _271
REMARK  111  A    between atoms: _274  and  _276
REMARK  112  A    between atoms: _276  and  _277
REMARK  113  A    between atoms: _276  and  _279
REMARK  114  A    between atoms: _279  and  _280
REMARK  115  A    between atoms: _283  and  _285
REMARK  116  A    between atoms: _285  and  _286
REMARK  117  A    between atoms: _285  and  _288
REMARK  118  A    between atoms: _291  and  _293
REMARK  119  A    between atoms: _293  and  _294
REMARK                            x       y       z     vdW  Elec       q    Type
REMARK                         _______ _______ _______ _____ _____    ______ ____
ROOT
ATOM      1  CA  ASP A   1      28.652  43.694  29.242  0.00  0.00    +0.144 C 
ENDROOT
BRANCH   1   2
ATOM      2  N   ASP A   1      29.553  44.804  29.576  0.00  0.00    -0.239 NA
ATOM      3  H   ASP A   1      29.868  45.444  28.819  0.00  0.00    +0.142 HD
ENDBRANCH   1   2
BRANCH   1   4
ATOM      4  C   ASP A   1      29.397  42.351  29.266  0.00  0.00    +0.225 C 
ATOM      5  O   ASP A   1      30.554  42.251  28.825  0.00  0.00    -0.287 OA
ENDBRANCH   1   4
BRANCH   1   6
ATOM      6  CB  ASP A   1      28.034  43.976  27.855  0.00  0.00    +0.139 C 
BRANCH   6   7
ATOM      7  CG  ASP A   1      26.839  43.068  27.491  0.00  0.00    +0.367 C 
ATOM      8  OD2 ASP A   1      26.963  41.819  27.517  0.00  0.00    -0.246 OA
ATOM      9  OD1 ASP A   1      25.763  43.616  27.111  0.00  0.00    -0.246 OA
ENDBRANCH   6   7
ENDBRANCH   1   6
TORSDOF 4
REMARK  Name = ../refined-set-2016/4mr3/4mr3_pocket.pdb
REMARK  119 active torsions:
REMARK  status: ('A' for Active; 'I' for Inactive)
REMARK    1  A    between atoms: _1  and  _3
REMARK    2  A    between atoms: _3  and  _4
REMARK    3  A    between atoms: _7  and  _9
REMARK    4  A    between atoms: _9  and  _10
REMARK    5  A    between atoms: _9  and  _12
REMARK    6  A    between atoms: _12  and  _13
REMARK    7  A    between atoms: _24  and  _25
REMARK    8  A    between atoms: _30  and  _32
REMARK    9  A    between atoms: _32  and  _33
REMARK   10  A    between atoms: _32  and  _35
REMARK   11  A    between atoms: _35  and  _36
REMARK   12  A    between atoms: _42  and  _44
REMARK   13  A    between atoms: _44  and  _45
REMARK   14  A    between atoms: _44  and  _47
REMARK   15  A    between atoms: _47  and  _48
REMARK   16  A    between atoms: _48  and  _49
REMARK   17  A    between atoms: _54  and  _56
REMARK   18  A    between atoms: _56  and  _57
REMARK   19  A    between atoms: _56  and  _59
REMARK   20  A    between atoms: _59  and  _60
REMARK   21  A    between atoms: _60  and  _61
REMARK   22  A    between atoms: _67  and  _68
REMARK   23  A    between atoms: _73  and  _75
REMARK   24  A    between atoms: _75  and  _76
REMARK   25  A    between atoms: _75  and  _78
REMARK   26  A    between atoms: _81  and  _83
REMARK   27  A    between atoms: _83  and  _84
REMARK   28  A    between atoms: _83  and  _86
REMARK   29  A    between atoms: _86  and  _87
REMARK   30  A    between atoms: _90  and  _92
REMARK   31  A    between atoms: _92  and  _93
REMARK   32  A    between atoms: _96  and  _98
REMARK   33  A    between atoms: _98  and  _99
REMARK   34  A    between atoms: _98  and  _101
REMARK   35  A    between atoms: _101  and  _102
REMARK   36  A    between atoms: _102  and  _103
REMARK   37  A    between atoms: _103  and  _104
REMARK   38  A    between atoms: _104  and  _105
REMARK   39  A    between atoms: _109  and  _111
REMARK   40  A    between atoms: _111  and  _112
REMARK   41  A    between atoms: _111  and  _114
REMARK   42  A    between atoms: _114  and  _115
REMARK   43  A    between atoms: _118  and  _120
REMARK   44  A    between atoms: _120  and  _121
REMARK   45  A    between atoms: _120  and  _123
REMARK   46  A    between atoms: _123  and  _124
REMARK   47  A    between atoms: _127  and  _129
REMARK   48  A    between atoms: _129  and  _130
REMARK   49  A    between atoms: _129  and  _132
REMARK   50  A    between atoms: _132  and  _133
REMARK   51  A    between atoms: _138  and  _139
REMARK   52  A    between atoms: _141  and  _143
REMARK   53  A    between atoms: _143  and  _144
REMARK   54  A    between atoms: _143  and  _146
REMARK   55  A    between atoms: _146  and  _147
REMARK   56  A    between atoms: _150  and  _152
REMARK   57  A    between atoms: _152  and  _153
REMARK   58  A    between atoms: _152  and  _155
REMARK   59  A    between atoms: _155  and  _156
REMARK   60  A    between atoms: _156  and  _157
REMARK   61  A    between atoms: _159  and  _161
REMARK   62  A    between atoms: _161  and  _162
REMARK   63  A    between atoms: _161  and  _164
REMARK   64  A    between atoms: _164  and  _165
REMARK   65  A    between atoms: _168  and  _170
REMARK   66  A    between atoms: _170  and  _171
REMARK   67  A    between atoms: _170  and  _173
REMARK   68  A    between atoms: _173  and  _174
REMARK   69  A    between atoms: _174  and  _175
REMARK   70  A    between atoms: _177  and  _179
REMARK   71  A    between atoms: _179  and  _180
REMARK   72  A    between atoms: _179  and  _182
REMARK   73  A    between atoms: _182  and  _183
REMARK   74  A    between atoms: _183  and  _184
REMARK   75  A    between atoms: _186  and  _188
REMARK   76  A    between atoms: _188  and  _189
REMARK   77  A    between atoms: _188  and  _191
REMARK   78  A    between atoms: _191  and  _192
REMARK   79  A    between atoms: _197  and  _199
REMARK   80  A    between atoms: _199  and  _200
REMARK   81  A    between atoms: _199  and  _202
REMARK   82  A    between atoms: _204  and  _206
REMARK   83  A    between atoms: _206  and  _207
REMARK   84  A    between atoms: _206  and  _209
REMARK   85  A    between atoms: _209  and  _210
REMARK   86  A    between atoms: _215  and  _216
REMARK   87  A    between atoms: _218  and  _220
REMARK   88  A    between atoms: _220  and  _221
REMARK   89  A    between atoms: _220  and  _223
REMARK   90  A    between atoms: _223  and  _224
REMARK   91  A    between atoms: _227  and  _229
REMARK   92  A    between atoms: _229  and  _230
REMARK   93  A    between atoms: _229  and  _232
REMARK   94  A    between atoms: _232  and  _233
REMARK   95  A    between atoms: _238  and  _239
REMARK   96  A    between atoms: _241  and  _243
REMARK   97  A    between atoms: _243  and  _244
REMARK   98  A    between atoms: _243  and  _246
REMARK   99  A    between atoms: _246  and  _247
REMARK  100  A    between atoms: _252  and  _254
REMARK  101  A    between atoms: _254  and  _255
REMARK  102  A    between atoms: _254  and  _257
REMARK  103  A    between atoms: _257  and  _258
REMARK  104  A    between atoms: _258  and  _259
REMARK  105  A    between atoms: _259  and  _260
REMARK  106  A    between atoms: _260  and  _261
REMARK  107  A    between atoms: _265  and  _267
REMARK  108  A    between atoms: _267  and  _268
REMARK  109  A    between atoms: _267  and  _270
REMARK  110  A    between atoms: _270  and  _271
REMARK  111  A    between atoms: _274  and  _276
REMARK  112  A    between atoms: _276  and  _277
REMARK  113  A    between atoms: _276  and  _279
REMARK  114  A    between atoms: _279  and  _280
REMARK  115  A    between atoms: _283  and  _285
REMARK  116  A    between atoms: _285  and  _286
REMARK  117  A    between atoms: _285  and  _288
REMARK  118  A    between atoms: _291  and  _293
REMARK  119  A    between atoms: _293  and  _294
REMARK                            x       y       z     vdW  Elec       q    Type
REMARK                         _______ _______ _______ _____ _____    ______ ____
ROOT
ATOM      1  C   ILE A   1      30.939  40.121  25.650  0.00  0.00    +0.238 C 
ATOM      2  N   VAL A   2      31.260  41.315  26.146  0.00  0.00    -0.298 N 
ATOM      3  H   VAL A   2      30.558  41.846  26.700  0.00  0.00    +0.150 HD
ATOM      4  O   ILE A   1      31.740  39.432  24.987  0.00  0.00    -0.274 OA
ENDROOT
BRANCH   1   5
ATOM      5  CA  ILE A   1      29.547  39.594  25.985  0.00  0.00    +0.145 C 
BRANCH   5   6
ATOM      6  N   ILE A   1      29.134  39.990  27.321  0.00  0.00    -0.238 NA
ATOM      7  H   ILE A   1      28.314  40.617  27.447  0.00  0.00    +0.142 HD
ENDBRANCH   5   6
BRANCH   5   8
ATOM      8  CB  ILE A   1      28.542  39.990  24.932  0.00  0.00    +0.025 C 
ATOM      9  CG2 ILE A   1      28.490  41.509  24.772  0.00  0.00    +0.002 C 
BRANCH   8  10
ATOM     10  CG1 ILE A   1      28.911  39.303  23.635  0.00  0.00    +0.002 C 
ATOM     11  CD1 ILE A   1      27.880  39.460  22.604  0.00  0.00    +0.000 C 
ENDBRANCH   8  10
ENDBRANCH   5   8
ENDBRANCH   1   5
BRANCH   2  12
ATOM     12  CA  VAL A   2      32.591  41.891  25.921  0.00  0.00    +0.137 C 
BRANCH  12  13
ATOM     13  CB  VAL A   2      32.609  43.387  26.353  0.00  0.00    +0.026 C 
ATOM     14  CG2 VAL A   2      34.034  43.961  26.439  0.00  0.00    +0.002 C 
ATOM     15  CG1 VAL A   2      31.747  44.207  25.433  0.00  0.00    +0.002 C 
ENDBRANCH  12  13
BRANCH  12  16
ATOM     16  C   VAL A   2      33.657  41.089  26.677  0.00  0.00    +0.227 C 
ATOM     17  O   VAL A   2      34.727  40.829  26.167  0.00  0.00    -0.286 OA
ENDBRANCH  12  16
ENDBRANCH   2  12
TORSDOF 7
REMARK  Name = ../refined-set-2016/4mr3/4mr3_pocket.pdb
REMARK  119 active torsions:
REMARK  status: ('A' for Active; 'I' for Inactive)
REMARK    1  A    between atoms: _1  and  _3
REMARK    2  A    between atoms: _3  and  _4
REMARK    3  A    between atoms: _7  and  _9
REMARK    4  A    between atoms: _9  and  _10
REMARK    5  A    between atoms: _9  and  _12
REMARK    6  A    between atoms: _12  and  _13
REMARK    7  A    between atoms: _24  and  _25
REMARK    8  A    between atoms: _30  and  _32
REMARK    9  A    between atoms: _32  and  _33
REMARK   10  A    between atoms: _32  and  _35
REMARK   11  A    between atoms: _35  and  _36
REMARK   12  A    between atoms: _42  and  _44
REMARK   13  A    between atoms: _44  and  _45
REMARK   14  A    between atoms: _44  and  _47
REMARK   15  A    between atoms: _47  and  _48
REMARK   16  A    between atoms: _48  and  _49
REMARK   17  A    between atoms: _54  and  _56
REMARK   18  A    between atoms: _56  and  _57
REMARK   19  A    between atoms: _56  and  _59
REMARK   20  A    between atoms: _59  and  _60
REMARK   21  A    between atoms: _60  and  _61
REMARK   22  A    between atoms: _67  and  _68
REMARK   23  A    between atoms: _73  and  _75
REMARK   24  A    between atoms: _75  and  _76
REMARK   25  A    between atoms: _75  and  _78
REMARK   26  A    between atoms: _81  and  _83
REMARK   27  A    between atoms: _83  and  _84
REMARK   28  A    between atoms: _83  and  _86
REMARK   29  A    between atoms: _86  and  _87
REMARK   30  A    between atoms: _90  and  _92
REMARK   31  A    between atoms: _92  and  _93
REMARK   32  A    between atoms: _96  and  _98
REMARK   33  A    between atoms: _98  and  _99
REMARK   34  A    between atoms: _98  and  _101
REMARK   35  A    between atoms: _101  and  _102
REMARK   36  A    between atoms: _102  and  _103
REMARK   37  A    between atoms: _103  and  _104
REMARK   38  A    between atoms: _104  and  _105
REMARK   39  A    between atoms: _109  and  _111
REMARK   40  A    between atoms: _111  and  _112
REMARK   41  A    between atoms: _111  and  _114
REMARK   42  A    between atoms: _114  and  _115
REMARK   43  A    between atoms: _118  and  _120
REMARK   44  A    between atoms: _120  and  _121
REMARK   45  A    between atoms: _120  and  _123
REMARK   46  A    between atoms: _123  and  _124
REMARK   47  A    between atoms: _127  and  _129
REMARK   48  A    between atoms: _129  and  _130
REMARK   49  A    between atoms: _129  and  _132
REMARK   50  A    between atoms: _132  and  _133
REMARK   51  A    between atoms: _138  and  _139
REMARK   52  A    between atoms: _141  and  _143
REMARK   53  A    between atoms: _143  and  _144
REMARK   54  A    between atoms: _143  and  _146
REMARK   55  A    between atoms: _146  and  _147
REMARK   56  A    between atoms: _150  and  _152
REMARK   57  A    between atoms: _152  and  _153
REMARK   58  A    between atoms: _152  and  _155
REMARK   59  A    between atoms: _155  and  _156
REMARK   60  A    between atoms: _156  and  _157
REMARK   61  A    between atoms: _159  and  _161
REMARK   62  A    between atoms: _161  and  _162
REMARK   63  A    between atoms: _161  and  _164
REMARK   64  A    between atoms: _164  and  _165
REMARK   65  A    between atoms: _168  and  _170
REMARK   66  A    between atoms: _170  and  _171
REMARK   67  A    between atoms: _170  and  _173
REMARK   68  A    between atoms: _173  and  _174
REMARK   69  A    between atoms: _174  and  _175
REMARK   70  A    between atoms: _177  and  _179
REMARK   71  A    between atoms: _179  and  _180
REMARK   72  A    between atoms: _179  and  _182
REMARK   73  A    between atoms: _182  and  _183
REMARK   74  A    between atoms: _183  and  _184
REMARK   75  A    between atoms: _186  and  _188
REMARK   76  A    between atoms: _188  and  _189
REMARK   77  A    between atoms: _188  and  _191
REMARK   78  A    between atoms: _191  and  _192
REMARK   79  A    between atoms: _197  and  _199
REMARK   80  A    between atoms: _199  and  _200
REMARK   81  A    between atoms: _199  and  _202
REMARK   82  A    between atoms: _204  and  _206
REMARK   83  A    between atoms: _206  and  _207
REMARK   84  A    between atoms: _206  and  _209
REMARK   85  A    between atoms: _209  and  _210
REMARK   86  A    between atoms: _215  and  _216
REMARK   87  A    between atoms: _218  and  _220
REMARK   88  A    between atoms: _220  and  _221
REMARK   89  A    between atoms: _220  and  _223
REMARK   90  A    between atoms: _223  and  _224
REMARK   91  A    between atoms: _227  and  _229
REMARK   92  A    between atoms: _229  and  _230
REMARK   93  A    between atoms: _229  and  _232
REMARK   94  A    between atoms: _232  and  _233
REMARK   95  A    between atoms: _238  and  _239
REMARK   96  A    between atoms: _241  and  _243
REMARK   97  A    between atoms: _243  and  _244
REMARK   98  A    between atoms: _243  and  _246
REMARK   99  A    between atoms: _246  and  _247
REMARK  100  A    between atoms: _252  and  _254
REMARK  101  A    between atoms: _254  and  _255
REMARK  102  A    between atoms: _254  and  _257
REMARK  103  A    between atoms: _257  and  _258
REMARK  104  A    between atoms: _258  and  _259
REMARK  105  A    between atoms: _259  and  _260
REMARK  106  A    between atoms: _260  and  _261
REMARK  107  A    between atoms: _265  and  _267
REMARK  108  A    between atoms: _267  and  _268
REMARK  109  A    between atoms: _267  and  _270
REMARK  110  A    between atoms: _270  and  _271
REMARK  111  A    between atoms: _274  and  _276
REMARK  112  A    between atoms: _276  and  _277
REMARK  113  A    between atoms: _276  and  _279
REMARK  114  A    between atoms: _279  and  _280
REMARK  115  A    between atoms: _283  and  _285
REMARK  116  A    between atoms: _285  and  _286
REMARK  117  A    between atoms: _285  and  _288
REMARK  118  A    between atoms: _291  and  _293
REMARK  119  A    between atoms: _293  and  _294
REMARK                            x       y       z     vdW  Elec       q    Type
REMARK                         _______ _______ _______ _____ _____    ______ ____
ROOT
ATOM      1  CA  ALA A   1      34.937  38.364  23.430  0.00  0.00    +0.133 C 
ATOM      2  CB  ALA A   1      34.443  39.654  22.762  0.00  0.00    +0.027 C 
ENDROOT
BRANCH   1   3
ATOM      3  N   ALA A   1      34.128  38.028  24.626  0.00  0.00    -0.239 NA
ATOM      4  H   ALA A   1      33.363  38.661  24.935  0.00  0.00    +0.142 HD
ENDBRANCH   1   3
BRANCH   1   5
ATOM      5  C   ALA A   1      36.435  38.514  23.847  0.00  0.00    +0.224 C 
ATOM      6  O   ALA A   1      37.324  38.049  23.134  0.00  0.00    -0.287 OA
ENDBRANCH   1   5
TORSDOF 2
REMARK  Name = ../refined-set-2016/4mr3/4mr3_pocket.pdb
REMARK  119 active torsions:
REMARK  status: ('A' for Active; 'I' for Inactive)
REMARK    1  A    between atoms: _1  and  _3
REMARK    2  A    between atoms: _3  and  _4
REMARK    3  A    between atoms: _7  and  _9
REMARK    4  A    between atoms: _9  and  _10
REMARK    5  A    between atoms: _9  and  _12
REMARK    6  A    between atoms: _12  and  _13
REMARK    7  A    between atoms: _24  and  _25
REMARK    8  A    between atoms: _30  and  _32
REMARK    9  A    between atoms: _32  and  _33
REMARK   10  A    between atoms: _32  and  _35
REMARK   11  A    between atoms: _35  and  _36
REMARK   12  A    between atoms: _42  and  _44
REMARK   13  A    between atoms: _44  and  _45
REMARK   14  A    between atoms: _44  and  _47
REMARK   15  A    between atoms: _47  and  _48
REMARK   16  A    between atoms: _48  and  _49
REMARK   17  A    between atoms: _54  and  _56
REMARK   18  A    between atoms: _56  and  _57
REMARK   19  A    between atoms: _56  and  _59
REMARK   20  A    between atoms: _59  and  _60
REMARK   21  A    between atoms: _60  and  _61
REMARK   22  A    between atoms: _67  and  _68
REMARK   23  A    between atoms: _73  and  _75
REMARK   24  A    between atoms: _75  and  _76
REMARK   25  A    between atoms: _75  and  _78
REMARK   26  A    between atoms: _81  and  _83
REMARK   27  A    between atoms: _83  and  _84
REMARK   28  A    between atoms: _83  and  _86
REMARK   29  A    between atoms: _86  and  _87
REMARK   30  A    between atoms: _90  and  _92
REMARK   31  A    between atoms: _92  and  _93
REMARK   32  A    between atoms: _96  and  _98
REMARK   33  A    between atoms: _98  and  _99
REMARK   34  A    between atoms: _98  and  _101
REMARK   35  A    between atoms: _101  and  _102
REMARK   36  A    between atoms: _102  and  _103
REMARK   37  A    between atoms: _103  and  _104
REMARK   38  A    between atoms: _104  and  _105
REMARK   39  A    between atoms: _109  and  _111
REMARK   40  A    between atoms: _111  and  _112
REMARK   41  A    between atoms: _111  and  _114
REMARK   42  A    between atoms: _114  and  _115
REMARK   43  A    between atoms: _118  and  _120
REMARK   44  A    between atoms: _120  and  _121
REMARK   45  A    between atoms: _120  and  _123
REMARK   46  A    between atoms: _123  and  _124
REMARK   47  A    between atoms: _127  and  _129
REMARK   48  A    between atoms: _129  and  _130
REMARK   49  A    between atoms: _129  and  _132
REMARK   50  A    between atoms: _132  and  _133
REMARK   51  A    between atoms: _138  and  _139
REMARK   52  A    between atoms: _141  and  _143
REMARK   53  A    between atoms: _143  and  _144
REMARK   54  A    between atoms: _143  and  _146
REMARK   55  A    between atoms: _146  and  _147
REMARK   56  A    between atoms: _150  and  _152
REMARK   57  A    between atoms: _152  and  _153
REMARK   58  A    between atoms: _152  and  _155
REMARK   59  A    between atoms: _155  and  _156
REMARK   60  A    between atoms: _156  and  _157
REMARK   61  A    between atoms: _159  and  _161
REMARK   62  A    between atoms: _161  and  _162
REMARK   63  A    between atoms: _161  and  _164
REMARK   64  A    between atoms: _164  and  _165
REMARK   65  A    between atoms: _168  and  _170
REMARK   66  A    between atoms: _170  and  _171
REMARK   67  A    between atoms: _170  and  _173
REMARK   68  A    between atoms: _173  and  _174
REMARK   69  A    between atoms: _174  and  _175
REMARK   70  A    between atoms: _177  and  _179
REMARK   71  A    between atoms: _179  and  _180
REMARK   72  A    between atoms: _179  and  _182
REMARK   73  A    between atoms: _182  and  _183
REMARK   74  A    between atoms: _183  and  _184
REMARK   75  A    between atoms: _186  and  _188
REMARK   76  A    between atoms: _188  and  _189
REMARK   77  A    between atoms: _188  and  _191
REMARK   78  A    between atoms: _191  and  _192
REMARK   79  A    between atoms: _197  and  _199
REMARK   80  A    between atoms: _199  and  _200
REMARK   81  A    between atoms: _199  and  _202
REMARK   82  A    between atoms: _204  and  _206
REMARK   83  A    between atoms: _206  and  _207
REMARK   84  A    between atoms: _206  and  _209
REMARK   85  A    between atoms: _209  and  _210
REMARK   86  A    between atoms: _215  and  _216
REMARK   87  A    between atoms: _218  and  _220
REMARK   88  A    between atoms: _220  and  _221
REMARK   89  A    between atoms: _220  and  _223
REMARK   90  A    between atoms: _223  and  _224
REMARK   91  A    between atoms: _227  and  _229
REMARK   92  A    between atoms: _229  and  _230
REMARK   93  A    between atoms: _229  and  _232
REMARK   94  A    between atoms: _232  and  _233
REMARK   95  A    between atoms: _238  and  _239
REMARK   96  A    between atoms: _241  and  _243
REMARK   97  A    between atoms: _243  and  _244
REMARK   98  A    between atoms: _243  and  _246
REMARK   99  A    between atoms: _246  and  _247
REMARK  100  A    between atoms: _252  and  _254
REMARK  101  A    between atoms: _254  and  _255
REMARK  102  A    between atoms: _254  and  _257
REMARK  103  A    between atoms: _257  and  _258
REMARK  104  A    between atoms: _258  and  _259
REMARK  105  A    between atoms: _259  and  _260
REMARK  106  A    between atoms: _260  and  _261
REMARK  107  A    between atoms: _265  and  _267
REMARK  108  A    between atoms: _267  and  _268
REMARK  109  A    between atoms: _267  and  _270
REMARK  110  A    between atoms: _270  and  _271
REMARK  111  A    between atoms: _274  and  _276
REMARK  112  A    between atoms: _276  and  _277
REMARK  113  A    between atoms: _276  and  _279
REMARK  114  A    between atoms: _279  and  _280
REMARK  115  A    between atoms: _283  and  _285
REMARK  116  A    between atoms: _285  and  _286
REMARK  117  A    between atoms: _285  and  _288
REMARK  118  A    between atoms: _291  and  _293
REMARK  119  A    between atoms: _293  and  _294
REMARK                            x       y       z     vdW  Elec       q    Type
REMARK                         _______ _______ _______ _____ _____    ______ ____
ROOT
ATOM      1  O   HOH     1      29.048  41.836  17.939  0.00  0.00    +0.000 OA
ENDROOT
TORSDOF 0
REMARK  Name = ../refined-set-2016/4mr3/4mr3_pocket.pdb
REMARK  119 active torsions:
REMARK  status: ('A' for Active; 'I' for Inactive)
REMARK    1  A    between atoms: _1  and  _3
REMARK    2  A    between atoms: _3  and  _4
REMARK    3  A    between atoms: _7  and  _9
REMARK    4  A    between atoms: _9  and  _10
REMARK    5  A    between atoms: _9  and  _12
REMARK    6  A    between atoms: _12  and  _13
REMARK    7  A    between atoms: _24  and  _25
REMARK    8  A    between atoms: _30  and  _32
REMARK    9  A    between atoms: _32  and  _33
REMARK   10  A    between atoms: _32  and  _35
REMARK   11  A    between atoms: _35  and  _36
REMARK   12  A    between atoms: _42  and  _44
REMARK   13  A    between atoms: _44  and  _45
REMARK   14  A    between atoms: _44  and  _47
REMARK   15  A    between atoms: _47  and  _48
REMARK   16  A    between atoms: _48  and  _49
REMARK   17  A    between atoms: _54  and  _56
REMARK   18  A    between atoms: _56  and  _57
REMARK   19  A    between atoms: _56  and  _59
REMARK   20  A    between atoms: _59  and  _60
REMARK   21  A    between atoms: _60  and  _61
REMARK   22  A    between atoms: _67  and  _68
REMARK   23  A    between atoms: _73  and  _75
REMARK   24  A    between atoms: _75  and  _76
REMARK   25  A    between atoms: _75  and  _78
REMARK   26  A    between atoms: _81  and  _83
REMARK   27  A    between atoms: _83  and  _84
REMARK   28  A    between atoms: _83  and  _86
REMARK   29  A    between atoms: _86  and  _87
REMARK   30  A    between atoms: _90  and  _92
REMARK   31  A    between atoms: _92  and  _93
REMARK   32  A    between atoms: _96  and  _98
REMARK   33  A    between atoms: _98  and  _99
REMARK   34  A    between atoms: _98  and  _101
REMARK   35  A    between atoms: _101  and  _102
REMARK   36  A    between atoms: _102  and  _103
REMARK   37  A    between atoms: _103  and  _104
REMARK   38  A    between atoms: _104  and  _105
REMARK   39  A    between atoms: _109  and  _111
REMARK   40  A    between atoms: _111  and  _112
REMARK   41  A    between atoms: _111  and  _114
REMARK   42  A    between atoms: _114  and  _115
REMARK   43  A    between atoms: _118  and  _120
REMARK   44  A    between atoms: _120  and  _121
REMARK   45  A    between atoms: _120  and  _123
REMARK   46  A    between atoms: _123  and  _124
REMARK   47  A    between atoms: _127  and  _129
REMARK   48  A    between atoms: _129  and  _130
REMARK   49  A    between atoms: _129  and  _132
REMARK   50  A    between atoms: _132  and  _133
REMARK   51  A    between atoms: _138  and  _139
REMARK   52  A    between atoms: _141  and  _143
REMARK   53  A    between atoms: _143  and  _144
REMARK   54  A    between atoms: _143  and  _146
REMARK   55  A    between atoms: _146  and  _147
REMARK   56  A    between atoms: _150  and  _152
REMARK   57  A    between atoms: _152  and  _153
REMARK   58  A    between atoms: _152  and  _155
REMARK   59  A    between atoms: _155  and  _156
REMARK   60  A    between atoms: _156  and  _157
REMARK   61  A    between atoms: _159  and  _161
REMARK   62  A    between atoms: _161  and  _162
REMARK   63  A    between atoms: _161  and  _164
REMARK   64  A    between atoms: _164  and  _165
REMARK   65  A    between atoms: _168  and  _170
REMARK   66  A    between atoms: _170  and  _171
REMARK   67  A    between atoms: _170  and  _173
REMARK   68  A    between atoms: _173  and  _174
REMARK   69  A    between atoms: _174  and  _175
REMARK   70  A    between atoms: _177  and  _179
REMARK   71  A    between atoms: _179  and  _180
REMARK   72  A    between atoms: _179  and  _182
REMARK   73  A    between atoms: _182  and  _183
REMARK   74  A    between atoms: _183  and  _184
REMARK   75  A    between atoms: _186  and  _188
REMARK   76  A    between atoms: _188  and  _189
REMARK   77  A    between atoms: _188  and  _191
REMARK   78  A    between atoms: _191  and  _192
REMARK   79  A    between atoms: _197  and  _199
REMARK   80  A    between atoms: _199  and  _200
REMARK   81  A    between atoms: _199  and  _202
REMARK   82  A    between atoms: _204  and  _206
REMARK   83  A    between atoms: _206  and  _207
REMARK   84  A    between atoms: _206  and  _209
REMARK   85  A    between atoms: _209  and  _210
REMARK   86  A    between atoms: _215  and  _216
REMARK   87  A    between atoms: _218  and  _220
REMARK   88  A    between atoms: _220  and  _221
REMARK   89  A    between atoms: _220  and  _223
REMARK   90  A    between atoms: _223  and  _224
REMARK   91  A    between atoms: _227  and  _229
REMARK   92  A    between atoms: _229  and  _230
REMARK   93  A    between atoms: _229  and  _232
REMARK   94  A    between atoms: _232  and  _233
REMARK   95  A    between atoms: _238  and  _239
REMARK   96  A    between atoms: _241  and  _243
REMARK   97  A    between atoms: _243  and  _244
REMARK   98  A    between atoms: _243  and  _246
REMARK   99  A    between atoms: _246  and  _247
REMARK  100  A    between atoms: _252  and  _254
REMARK  101  A    between atoms: _254  and  _255
REMARK  102  A    between atoms: _254  and  _257
REMARK  103  A    between atoms: _257  and  _258
REMARK  104  A    between atoms: _258  and  _259
REMARK  105  A    between atoms: _259  and  _260
REMARK  106  A    between atoms: _260  and  _261
REMARK  107  A    between atoms: _265  and  _267
REMARK  108  A    between atoms: _267  and  _268
REMARK  109  A    between atoms: _267  and  _270
REMARK  110  A    between atoms: _270  and  _271
REMARK  111  A    between atoms: _274  and  _276
REMARK  112  A    between atoms: _276  and  _277
REMARK  113  A    between atoms: _276  and  _279
REMARK  114  A    between atoms: _279  and  _280
REMARK  115  A    between atoms: _283  and  _285
REMARK  116  A    between atoms: _285  and  _286
REMARK  117  A    between atoms: _285  and  _288
REMARK  118  A    between atoms: _291  and  _293
REMARK  119  A    between atoms: _293  and  _294
REMARK                            x       y       z     vdW  Elec       q    Type
REMARK                         _______ _______ _______ _____ _____    ______ ____
ROOT
ATOM      1  O   HOH     1      26.640  39.278  12.589  0.00  0.00    +0.000 OA
ENDROOT
TORSDOF 0
REMARK  Name = ../refined-set-2016/4mr3/4mr3_pocket.pdb
REMARK  119 active torsions:
REMARK  status: ('A' for Active; 'I' for Inactive)
REMARK    1  A    between atoms: _1  and  _3
REMARK    2  A    between atoms: _3  and  _4
REMARK    3  A    between atoms: _7  and  _9
REMARK    4  A    between atoms: _9  and  _10
REMARK    5  A    between atoms: _9  and  _12
REMARK    6  A    between atoms: _12  and  _13
REMARK    7  A    between atoms: _24  and  _25
REMARK    8  A    between atoms: _30  and  _32
REMARK    9  A    between atoms: _32  and  _33
REMARK   10  A    between atoms: _32  and  _35
REMARK   11  A    between atoms: _35  and  _36
REMARK   12  A    between atoms: _42  and  _44
REMARK   13  A    between atoms: _44  and  _45
REMARK   14  A    between atoms: _44  and  _47
REMARK   15  A    between atoms: _47  and  _48
REMARK   16  A    between atoms: _48  and  _49
REMARK   17  A    between atoms: _54  and  _56
REMARK   18  A    between atoms: _56  and  _57
REMARK   19  A    between atoms: _56  and  _59
REMARK   20  A    between atoms: _59  and  _60
REMARK   21  A    between atoms: _60  and  _61
REMARK   22  A    between atoms: _67  and  _68
REMARK   23  A    between atoms: _73  and  _75
REMARK   24  A    between atoms: _75  and  _76
REMARK   25  A    between atoms: _75  and  _78
REMARK   26  A    between atoms: _81  and  _83
REMARK   27  A    between atoms: _83  and  _84
REMARK   28  A    between atoms: _83  and  _86
REMARK   29  A    between atoms: _86  and  _87
REMARK   30  A    between atoms: _90  and  _92
REMARK   31  A    between atoms: _92  and  _93
REMARK   32  A    between atoms: _96  and  _98
REMARK   33  A    between atoms: _98  and  _99
REMARK   34  A    between atoms: _98  and  _101
REMARK   35  A    between atoms: _101  and  _102
REMARK   36  A    between atoms: _102  and  _103
REMARK   37  A    between atoms: _103  and  _104
REMARK   38  A    between atoms: _104  and  _105
REMARK   39  A    between atoms: _109  and  _111
REMARK   40  A    between atoms: _111  and  _112
REMARK   41  A    between atoms: _111  and  _114
REMARK   42  A    between atoms: _114  and  _115
REMARK   43  A    between atoms: _118  and  _120
REMARK   44  A    between atoms: _120  and  _121
REMARK   45  A    between atoms: _120  and  _123
REMARK   46  A    between atoms: _123  and  _124
REMARK   47  A    between atoms: _127  and  _129
REMARK   48  A    between atoms: _129  and  _130
REMARK   49  A    between atoms: _129  and  _132
REMARK   50  A    between atoms: _132  and  _133
REMARK   51  A    between atoms: _138  and  _139
REMARK   52  A    between atoms: _141  and  _143
REMARK   53  A    between atoms: _143  and  _144
REMARK   54  A    between atoms: _143  and  _146
REMARK   55  A    between atoms: _146  and  _147
REMARK   56  A    between atoms: _150  and  _152
REMARK   57  A    between atoms: _152  and  _153
REMARK   58  A    between atoms: _152  and  _155
REMARK   59  A    between atoms: _155  and  _156
REMARK   60  A    between atoms: _156  and  _157
REMARK   61  A    between atoms: _159  and  _161
REMARK   62  A    between atoms: _161  and  _162
REMARK   63  A    between atoms: _161  and  _164
REMARK   64  A    between atoms: _164  and  _165
REMARK   65  A    between atoms: _168  and  _170
REMARK   66  A    between atoms: _170  and  _171
REMARK   67  A    between atoms: _170  and  _173
REMARK   68  A    between atoms: _173  and  _174
REMARK   69  A    between atoms: _174  and  _175
REMARK   70  A    between atoms: _177  and  _179
REMARK   71  A    between atoms: _179  and  _180
REMARK   72  A    between atoms: _179  and  _182
REMARK   73  A    between atoms: _182  and  _183
REMARK   74  A    between atoms: _183  and  _184
REMARK   75  A    between atoms: _186  and  _188
REMARK   76  A    between atoms: _188  and  _189
REMARK   77  A    between atoms: _188  and  _191
REMARK   78  A    between atoms: _191  and  _192
REMARK   79  A    between atoms: _197  and  _199
REMARK   80  A    between atoms: _199  and  _200
REMARK   81  A    between atoms: _199  and  _202
REMARK   82  A    between atoms: _204  and  _206
REMARK   83  A    between atoms: _206  and  _207
REMARK   84  A    between atoms: _206  and  _209
REMARK   85  A    between atoms: _209  and  _210
REMARK   86  A    between atoms: _215  and  _216
REMARK   87  A    between atoms: _218  and  _220
REMARK   88  A    between atoms: _220  and  _221
REMARK   89  A    between atoms: _220  and  _223
REMARK   90  A    between atoms: _223  and  _224
REMARK   91  A    between atoms: _227  and  _229
REMARK   92  A    between atoms: _229  and  _230
REMARK   93  A    between atoms: _229  and  _232
REMARK   94  A    between atoms: _232  and  _233
REMARK   95  A    between atoms: _238  and  _239
REMARK   96  A    between atoms: _241  and  _243
REMARK   97  A    between atoms: _243  and  _244
REMARK   98  A    between atoms: _243  and  _246
REMARK   99  A    between atoms: _246  and  _247
REMARK  100  A    between atoms: _252  and  _254
REMARK  101  A    between atoms: _254  and  _255
REMARK  102  A    between atoms: _254  and  _257
REMARK  103  A    between atoms: _257  and  _258
REMARK  104  A    between atoms: _258  and  _259
REMARK  105  A    between atoms: _259  and  _260
REMARK  106  A    between atoms: _260  and  _261
REMARK  107  A    between atoms: _265  and  _267
REMARK  108  A    between atoms: _267  and  _268
REMARK  109  A    between atoms: _267  and  _270
REMARK  110  A    between atoms: _270  and  _271
REMARK  111  A    between atoms: _274  and  _276
REMARK  112  A    between atoms: _276  and  _277
REMARK  113  A    between atoms: _276  and  _279
REMARK  114  A    between atoms: _279  and  _280
REMARK  115  A    between atoms: _283  and  _285
REMARK  116  A    between atoms: _285  and  _286
REMARK  117  A    between atoms: _285  and  _288
REMARK  118  A    between atoms: _291  and  _293
REMARK  119  A    between atoms: _293  and  _294
REMARK                            x       y       z     vdW  Elec       q    Type
REMARK                         _______ _______ _______ _____ _____    ______ ____
ROOT
ATOM      1  O   HOH     1      29.594  38.407  15.569  0.00  0.00    +0.000 OA
ENDROOT
TORSDOF 0
REMARK  Name = ../refined-set-2016/4mr3/4mr3_pocket.pdb
REMARK  119 active torsions:
REMARK  status: ('A' for Active; 'I' for Inactive)
REMARK    1  A    between atoms: _1  and  _3
REMARK    2  A    between atoms: _3  and  _4
REMARK    3  A    between atoms: _7  and  _9
REMARK    4  A    between atoms: _9  and  _10
REMARK    5  A    between atoms: _9  and  _12
REMARK    6  A    between atoms: _12  and  _13
REMARK    7  A    between atoms: _24  and  _25
REMARK    8  A    between atoms: _30  and  _32
REMARK    9  A    between atoms: _32  and  _33
REMARK   10  A    between atoms: _32  and  _35
REMARK   11  A    between atoms: _35  and  _36
REMARK   12  A    between atoms: _42  and  _44
REMARK   13  A    between atoms: _44  and  _45
REMARK   14  A    between atoms: _44  and  _47
REMARK   15  A    between atoms: _47  and  _48
REMARK   16  A    between atoms: _48  and  _49
REMARK   17  A    between atoms: _54  and  _56
REMARK   18  A    between atoms: _56  and  _57
REMARK   19  A    between atoms: _56  and  _59
REMARK   20  A    between atoms: _59  and  _60
REMARK   21  A    between atoms: _60  and  _61
REMARK   22  A    between atoms: _67  and  _68
REMARK   23  A    between atoms: _73  and  _75
REMARK   24  A    between atoms: _75  and  _76
REMARK   25  A    between atoms: _75  and  _78
REMARK   26  A    between atoms: _81  and  _83
REMARK   27  A    between atoms: _83  and  _84
REMARK   28  A    between atoms: _83  and  _86
REMARK   29  A    between atoms: _86  and  _87
REMARK   30  A    between atoms: _90  and  _92
REMARK   31  A    between atoms: _92  and  _93
REMARK   32  A    between atoms: _96  and  _98
REMARK   33  A    between atoms: _98  and  _99
REMARK   34  A    between atoms: _98  and  _101
REMARK   35  A    between atoms: _101  and  _102
REMARK   36  A    between atoms: _102  and  _103
REMARK   37  A    between atoms: _103  and  _104
REMARK   38  A    between atoms: _104  and  _105
REMARK   39  A    between atoms: _109  and  _111
REMARK   40  A    between atoms: _111  and  _112
REMARK   41  A    between atoms: _111  and  _114
REMARK   42  A    between atoms: _114  and  _115
REMARK   43  A    between atoms: _118  and  _120
REMARK   44  A    between atoms: _120  and  _121
REMARK   45  A    between atoms: _120  and  _123
REMARK   46  A    between atoms: _123  and  _124
REMARK   47  A    between atoms: _127  and  _129
REMARK   48  A    between atoms: _129  and  _130
REMARK   49  A    between atoms: _129  and  _132
REMARK   50  A    between atoms: _132  and  _133
REMARK   51  A    between atoms: _138  and  _139
REMARK   52  A    between atoms: _141  and  _143
REMARK   53  A    between atoms: _143  and  _144
REMARK   54  A    between atoms: _143  and  _146
REMARK   55  A    between atoms: _146  and  _147
REMARK   56  A    between atoms: _150  and  _152
REMARK   57  A    between atoms: _152  and  _153
REMARK   58  A    between atoms: _152  and  _155
REMARK   59  A    between atoms: _155  and  _156
REMARK   60  A    between atoms: _156  and  _157
REMARK   61  A    between atoms: _159  and  _161
REMARK   62  A    between atoms: _161  and  _162
REMARK   63  A    between atoms: _161  and  _164
REMARK   64  A    between atoms: _164  and  _165
REMARK   65  A    between atoms: _168  and  _170
REMARK   66  A    between atoms: _170  and  _171
REMARK   67  A    between atoms: _170  and  _173
REMARK   68  A    between atoms: _173  and  _174
REMARK   69  A    between atoms: _174  and  _175
REMARK   70  A    between atoms: _177  and  _179
REMARK   71  A    between atoms: _179  and  _180
REMARK   72  A    between atoms: _179  and  _182
REMARK   73  A    between atoms: _182  and  _183
REMARK   74  A    between atoms: _183  and  _184
REMARK   75  A    between atoms: _186  and  _188
REMARK   76  A    between atoms: _188  and  _189
REMARK   77  A    between atoms: _188  and  _191
REMARK   78  A    between atoms: _191  and  _192
REMARK   79  A    between atoms: _197  and  _199
REMARK   80  A    between atoms: _199  and  _200
REMARK   81  A    between atoms: _199  and  _202
REMARK   82  A    between atoms: _204  and  _206
REMARK   83  A    between atoms: _206  and  _207
REMARK   84  A    between atoms: _206  and  _209
REMARK   85  A    between atoms: _209  and  _210
REMARK   86  A    between atoms: _215  and  _216
REMARK   87  A    between atoms: _218  and  _220
REMARK   88  A    between atoms: _220  and  _221
REMARK   89  A    between atoms: _220  and  _223
REMARK   90  A    between atoms: _223  and  _224
REMARK   91  A    between atoms: _227  and  _229
REMARK   92  A    between atoms: _229  and  _230
REMARK   93  A    between atoms: _229  and  _232
REMARK   94  A    between atoms: _232  and  _233
REMARK   95  A    between atoms: _238  and  _239
REMARK   96  A    between atoms: _241  and  _243
REMARK   97  A    between atoms: _243  and  _244
REMARK   98  A    between atoms: _243  and  _246
REMARK   99  A    between atoms: _246  and  _247
REMARK  100  A    between atoms: _252  and  _254
REMARK  101  A    between atoms: _254  and  _255
REMARK  102  A    between atoms: _254  and  _257
REMARK  103  A    between atoms: _257  and  _258
REMARK  104  A    between atoms: _258  and  _259
REMARK  105  A    between atoms: _259  and  _260
REMARK  106  A    between atoms: _260  and  _261
REMARK  107  A    between atoms: _265  and  _267
REMARK  108  A    between atoms: _267  and  _268
REMARK  109  A    between atoms: _267  and  _270
REMARK  110  A    between atoms: _270  and  _271
REMARK  111  A    between atoms: _274  and  _276
REMARK  112  A    between atoms: _276  and  _277
REMARK  113  A    between atoms: _276  and  _279
REMARK  114  A    between atoms: _279  and  _280
REMARK  115  A    between atoms: _283  and  _285
REMARK  116  A    between atoms: _285  and  _286
REMARK  117  A    between atoms: _285  and  _288
REMARK  118  A    between atoms: _291  and  _293
REMARK  119  A    between atoms: _293  and  _294
REMARK                            x       y       z     vdW  Elec       q    Type
REMARK                         _______ _______ _______ _____ _____    ______ ____
ROOT
ATOM      1  O   HOH     1      27.794  36.669  16.503  0.00  0.00    +0.000 OA
ENDROOT
TORSDOF 0
REMARK  Name = ../refined-set-2016/4mr3/4mr3_pocket.pdb
REMARK  119 active torsions:
REMARK  status: ('A' for Active; 'I' for Inactive)
REMARK    1  A    between atoms: _1  and  _3
REMARK    2  A    between atoms: _3  and  _4
REMARK    3  A    between atoms: _7  and  _9
REMARK    4  A    between atoms: _9  and  _10
REMARK    5  A    between atoms: _9  and  _12
REMARK    6  A    between atoms: _12  and  _13
REMARK    7  A    between atoms: _24  and  _25
REMARK    8  A    between atoms: _30  and  _32
REMARK    9  A    between atoms: _32  and  _33
REMARK   10  A    between atoms: _32  and  _35
REMARK   11  A    between atoms: _35  and  _36
REMARK   12  A    between atoms: _42  and  _44
REMARK   13  A    between atoms: _44  and  _45
REMARK   14  A    between atoms: _44  and  _47
REMARK   15  A    between atoms: _47  and  _48
REMARK   16  A    between atoms: _48  and  _49
REMARK   17  A    between atoms: _54  and  _56
REMARK   18  A    between atoms: _56  and  _57
REMARK   19  A    between atoms: _56  and  _59
REMARK   20  A    between atoms: _59  and  _60
REMARK   21  A    between atoms: _60  and  _61
REMARK   22  A    between atoms: _67  and  _68
REMARK   23  A    between atoms: _73  and  _75
REMARK   24  A    between atoms: _75  and  _76
REMARK   25  A    between atoms: _75  and  _78
REMARK   26  A    between atoms: _81  and  _83
REMARK   27  A    between atoms: _83  and  _84
REMARK   28  A    between atoms: _83  and  _86
REMARK   29  A    between atoms: _86  and  _87
REMARK   30  A    between atoms: _90  and  _92
REMARK   31  A    between atoms: _92  and  _93
REMARK   32  A    between atoms: _96  and  _98
REMARK   33  A    between atoms: _98  and  _99
REMARK   34  A    between atoms: _98  and  _101
REMARK   35  A    between atoms: _101  and  _102
REMARK   36  A    between atoms: _102  and  _103
REMARK   37  A    between atoms: _103  and  _104
REMARK   38  A    between atoms: _104  and  _105
REMARK   39  A    between atoms: _109  and  _111
REMARK   40  A    between atoms: _111  and  _112
REMARK   41  A    between atoms: _111  and  _114
REMARK   42  A    between atoms: _114  and  _115
REMARK   43  A    between atoms: _118  and  _120
REMARK   44  A    between atoms: _120  and  _121
REMARK   45  A    between atoms: _120  and  _123
REMARK   46  A    between atoms: _123  and  _124
REMARK   47  A    between atoms: _127  and  _129
REMARK   48  A    between atoms: _129  and  _130
REMARK   49  A    between atoms: _129  and  _132
REMARK   50  A    between atoms: _132  and  _133
REMARK   51  A    between atoms: _138  and  _139
REMARK   52  A    between atoms: _141  and  _143
REMARK   53  A    between atoms: _143  and  _144
REMARK   54  A    between atoms: _143  and  _146
REMARK   55  A    between atoms: _146  and  _147
REMARK   56  A    between atoms: _150  and  _152
REMARK   57  A    between atoms: _152  and  _153
REMARK   58  A    between atoms: _152  and  _155
REMARK   59  A    between atoms: _155  and  _156
REMARK   60  A    between atoms: _156  and  _157
REMARK   61  A    between atoms: _159  and  _161
REMARK   62  A    between atoms: _161  and  _162
REMARK   63  A    between atoms: _161  and  _164
REMARK   64  A    between atoms: _164  and  _165
REMARK   65  A    between atoms: _168  and  _170
REMARK   66  A    between atoms: _170  and  _171
REMARK   67  A    between atoms: _170  and  _173
REMARK   68  A    between atoms: _173  and  _174
REMARK   69  A    between atoms: _174  and  _175
REMARK   70  A    between atoms: _177  and  _179
REMARK   71  A    between atoms: _179  and  _180
REMARK   72  A    between atoms: _179  and  _182
REMARK   73  A    between atoms: _182  and  _183
REMARK   74  A    between atoms: _183  and  _184
REMARK   75  A    between atoms: _186  and  _188
REMARK   76  A    between atoms: _188  and  _189
REMARK   77  A    between atoms: _188  and  _191
REMARK   78  A    between atoms: _191  and  _192
REMARK   79  A    between atoms: _197  and  _199
REMARK   80  A    between atoms: _199  and  _200
REMARK   81  A    between atoms: _199  and  _202
REMARK   82  A    between atoms: _204  and  _206
REMARK   83  A    between atoms: _206  and  _207
REMARK   84  A    between atoms: _206  and  _209
REMARK   85  A    between atoms: _209  and  _210
REMARK   86  A    between atoms: _215  and  _216
REMARK   87  A    between atoms: _218  and  _220
REMARK   88  A    between atoms: _220  and  _221
REMARK   89  A    between atoms: _220  and  _223
REMARK   90  A    between atoms: _223  and  _224
REMARK   91  A    between atoms: _227  and  _229
REMARK   92  A    between atoms: _229  and  _230
REMARK   93  A    between atoms: _229  and  _232
REMARK   94  A    between atoms: _232  and  _233
REMARK   95  A    between atoms: _238  and  _239
REMARK   96  A    between atoms: _241  and  _243
REMARK   97  A    between atoms: _243  and  _244
REMARK   98  A    between atoms: _243  and  _246
REMARK   99  A    between atoms: _246  and  _247
REMARK  100  A    between atoms: _252  and  _254
REMARK  101  A    between atoms: _254  and  _255
REMARK  102  A    between atoms: _254  and  _257
REMARK  103  A    between atoms: _257  and  _258
REMARK  104  A    between atoms: _258  and  _259
REMARK  105  A    between atoms: _259  and  _260
REMARK  106  A    between atoms: _260  and  _261
REMARK  107  A    between atoms: _265  and  _267
REMARK  108  A    between atoms: _267  and  _268
REMARK  109  A    between atoms: _267  and  _270
REMARK  110  A    between atoms: _270  and  _271
REMARK  111  A    between atoms: _274  and  _276
REMARK  112  A    between atoms: _276  and  _277
REMARK  113  A    between atoms: _276  and  _279
REMARK  114  A    between atoms: _279  and  _280
REMARK  115  A    between atoms: _283  and  _285
REMARK  116  A    between atoms: _285  and  _286
REMARK  117  A    between atoms: _285  and  _288
REMARK  118  A    between atoms: _291  and  _293
REMARK  119  A    between atoms: _293  and  _294
REMARK                            x       y       z     vdW  Elec       q    Type
REMARK                         _______ _______ _______ _____ _____    ______ ____
ROOT
ATOM      1  O   HOH     1      19.899  47.937  18.882  0.00  0.00    +0.000 OA
ENDROOT
TORSDOF 0
REMARK  Name = ../refined-set-2016/4mr3/4mr3_pocket.pdb
REMARK  119 active torsions:
REMARK  status: ('A' for Active; 'I' for Inactive)
REMARK    1  A    between atoms: _1  and  _3
REMARK    2  A    between atoms: _3  and  _4
REMARK    3  A    between atoms: _7  and  _9
REMARK    4  A    between atoms: _9  and  _10
REMARK    5  A    between atoms: _9  and  _12
REMARK    6  A    between atoms: _12  and  _13
REMARK    7  A    between atoms: _24  and  _25
REMARK    8  A    between atoms: _30  and  _32
REMARK    9  A    between atoms: _32  and  _33
REMARK   10  A    between atoms: _32  and  _35
REMARK   11  A    between atoms: _35  and  _36
REMARK   12  A    between atoms: _42  and  _44
REMARK   13  A    between atoms: _44  and  _45
REMARK   14  A    between atoms: _44  and  _47
REMARK   15  A    between atoms: _47  and  _48
REMARK   16  A    between atoms: _48  and  _49
REMARK   17  A    between atoms: _54  and  _56
REMARK   18  A    between atoms: _56  and  _57
REMARK   19  A    between atoms: _56  and  _59
REMARK   20  A    between atoms: _59  and  _60
REMARK   21  A    between atoms: _60  and  _61
REMARK   22  A    between atoms: _67  and  _68
REMARK   23  A    between atoms: _73  and  _75
REMARK   24  A    between atoms: _75  and  _76
REMARK   25  A    between atoms: _75  and  _78
REMARK   26  A    between atoms: _81  and  _83
REMARK   27  A    between atoms: _83  and  _84
REMARK   28  A    between atoms: _83  and  _86
REMARK   29  A    between atoms: _86  and  _87
REMARK   30  A    between atoms: _90  and  _92
REMARK   31  A    between atoms: _92  and  _93
REMARK   32  A    between atoms: _96  and  _98
REMARK   33  A    between atoms: _98  and  _99
REMARK   34  A    between atoms: _98  and  _101
REMARK   35  A    between atoms: _101  and  _102
REMARK   36  A    between atoms: _102  and  _103
REMARK   37  A    between atoms: _103  and  _104
REMARK   38  A    between atoms: _104  and  _105
REMARK   39  A    between atoms: _109  and  _111
REMARK   40  A    between atoms: _111  and  _112
REMARK   41  A    between atoms: _111  and  _114
REMARK   42  A    between atoms: _114  and  _115
REMARK   43  A    between atoms: _118  and  _120
REMARK   44  A    between atoms: _120  and  _121
REMARK   45  A    between atoms: _120  and  _123
REMARK   46  A    between atoms: _123  and  _124
REMARK   47  A    between atoms: _127  and  _129
REMARK   48  A    between atoms: _129  and  _130
REMARK   49  A    between atoms: _129  and  _132
REMARK   50  A    between atoms: _132  and  _133
REMARK   51  A    between atoms: _138  and  _139
REMARK   52  A    between atoms: _141  and  _143
REMARK   53  A    between atoms: _143  and  _144
REMARK   54  A    between atoms: _143  and  _146
REMARK   55  A    between atoms: _146  and  _147
REMARK   56  A    between atoms: _150  and  _152
REMARK   57  A    between atoms: _152  and  _153
REMARK   58  A    between atoms: _152  and  _155
REMARK   59  A    between atoms: _155  and  _156
REMARK   60  A    between atoms: _156  and  _157
REMARK   61  A    between atoms: _159  and  _161
REMARK   62  A    between atoms: _161  and  _162
REMARK   63  A    between atoms: _161  and  _164
REMARK   64  A    between atoms: _164  and  _165
REMARK   65  A    between atoms: _168  and  _170
REMARK   66  A    between atoms: _170  and  _171
REMARK   67  A    between atoms: _170  and  _173
REMARK   68  A    between atoms: _173  and  _174
REMARK   69  A    between atoms: _174  and  _175
REMARK   70  A    between atoms: _177  and  _179
REMARK   71  A    between atoms: _179  and  _180
REMARK   72  A    between atoms: _179  and  _182
REMARK   73  A    between atoms: _182  and  _183
REMARK   74  A    between atoms: _183  and  _184
REMARK   75  A    between atoms: _186  and  _188
REMARK   76  A    between atoms: _188  and  _189
REMARK   77  A    between atoms: _188  and  _191
REMARK   78  A    between atoms: _191  and  _192
REMARK   79  A    between atoms: _197  and  _199
REMARK   80  A    between atoms: _199  and  _200
REMARK   81  A    between atoms: _199  and  _202
REMARK   82  A    between atoms: _204  and  _206
REMARK   83  A    between atoms: _206  and  _207
REMARK   84  A    between atoms: _206  and  _209
REMARK   85  A    between atoms: _209  and  _210
REMARK   86  A    between atoms: _215  and  _216
REMARK   87  A    between atoms: _218  and  _220
REMARK   88  A    between atoms: _220  and  _221
REMARK   89  A    between atoms: _220  and  _223
REMARK   90  A    between atoms: _223  and  _224
REMARK   91  A    between atoms: _227  and  _229
REMARK   92  A    between atoms: _229  and  _230
REMARK   93  A    between atoms: _229  and  _232
REMARK   94  A    between atoms: _232  and  _233
REMARK   95  A    between atoms: _238  and  _239
REMARK   96  A    between atoms: _241  and  _243
REMARK   97  A    between atoms: _243  and  _244
REMARK   98  A    between atoms: _243  and  _246
REMARK   99  A    between atoms: _246  and  _247
REMARK  100  A    between atoms: _252  and  _254
REMARK  101  A    between atoms: _254  and  _255
REMARK  102  A    between atoms: _254  and  _257
REMARK  103  A    between atoms: _257  and  _258
REMARK  104  A    between atoms: _258  and  _259
REMARK  105  A    between atoms: _259  and  _260
REMARK  106  A    between atoms: _260  and  _261
REMARK  107  A    between atoms: _265  and  _267
REMARK  108  A    between atoms: _267  and  _268
REMARK  109  A    between atoms: _267  and  _270
REMARK  110  A    between atoms: _270  and  _271
REMARK  111  A    between atoms: _274  and  _276
REMARK  112  A    between atoms: _276  and  _277
REMARK  113  A    between atoms: _276  and  _279
REMARK  114  A    between atoms: _279  and  _280
REMARK  115  A    between atoms: _283  and  _285
REMARK  116  A    between atoms: _285  and  _286
REMARK  117  A    between atoms: _285  and  _288
REMARK  118  A    between atoms: _291  and  _293
REMARK  119  A    between atoms: _293  and  _294
REMARK                            x       y       z     vdW  Elec       q    Type
REMARK                         _______ _______ _______ _____ _____    ______ ____
ROOT
ATOM      1  O   HOH     1      24.682  35.649  18.024  0.00  0.00    +0.000 OA
ENDROOT
TORSDOF 0
REMARK  Name = ../refined-set-2016/4mr3/4mr3_pocket.pdb
REMARK  119 active torsions:
REMARK  status: ('A' for Active; 'I' for Inactive)
REMARK    1  A    between atoms: _1  and  _3
REMARK    2  A    between atoms: _3  and  _4
REMARK    3  A    between atoms: _7  and  _9
REMARK    4  A    between atoms: _9  and  _10
REMARK    5  A    between atoms: _9  and  _12
REMARK    6  A    between atoms: _12  and  _13
REMARK    7  A    between atoms: _24  and  _25
REMARK    8  A    between atoms: _30  and  _32
REMARK    9  A    between atoms: _32  and  _33
REMARK   10  A    between atoms: _32  and  _35
REMARK   11  A    between atoms: _35  and  _36
REMARK   12  A    between atoms: _42  and  _44
REMARK   13  A    between atoms: _44  and  _45
REMARK   14  A    between atoms: _44  and  _47
REMARK   15  A    between atoms: _47  and  _48
REMARK   16  A    between atoms: _48  and  _49
REMARK   17  A    between atoms: _54  and  _56
REMARK   18  A    between atoms: _56  and  _57
REMARK   19  A    between atoms: _56  and  _59
REMARK   20  A    between atoms: _59  and  _60
REMARK   21  A    between atoms: _60  and  _61
REMARK   22  A    between atoms: _67  and  _68
REMARK   23  A    between atoms: _73  and  _75
REMARK   24  A    between atoms: _75  and  _76
REMARK   25  A    between atoms: _75  and  _78
REMARK   26  A    between atoms: _81  and  _83
REMARK   27  A    between atoms: _83  and  _84
REMARK   28  A    between atoms: _83  and  _86
REMARK   29  A    between atoms: _86  and  _87
REMARK   30  A    between atoms: _90  and  _92
REMARK   31  A    between atoms: _92  and  _93
REMARK   32  A    between atoms: _96  and  _98
REMARK   33  A    between atoms: _98  and  _99
REMARK   34  A    between atoms: _98  and  _101
REMARK   35  A    between atoms: _101  and  _102
REMARK   36  A    between atoms: _102  and  _103
REMARK   37  A    between atoms: _103  and  _104
REMARK   38  A    between atoms: _104  and  _105
REMARK   39  A    between atoms: _109  and  _111
REMARK   40  A    between atoms: _111  and  _112
REMARK   41  A    between atoms: _111  and  _114
REMARK   42  A    between atoms: _114  and  _115
REMARK   43  A    between atoms: _118  and  _120
REMARK   44  A    between atoms: _120  and  _121
REMARK   45  A    between atoms: _120  and  _123
REMARK   46  A    between atoms: _123  and  _124
REMARK   47  A    between atoms: _127  and  _129
REMARK   48  A    between atoms: _129  and  _130
REMARK   49  A    between atoms: _129  and  _132
REMARK   50  A    between atoms: _132  and  _133
REMARK   51  A    between atoms: _138  and  _139
REMARK   52  A    between atoms: _141  and  _143
REMARK   53  A    between atoms: _143  and  _144
REMARK   54  A    between atoms: _143  and  _146
REMARK   55  A    between atoms: _146  and  _147
REMARK   56  A    between atoms: _150  and  _152
REMARK   57  A    between atoms: _152  and  _153
REMARK   58  A    between atoms: _152  and  _155
REMARK   59  A    between atoms: _155  and  _156
REMARK   60  A    between atoms: _156  and  _157
REMARK   61  A    between atoms: _159  and  _161
REMARK   62  A    between atoms: _161  and  _162
REMARK   63  A    between atoms: _161  and  _164
REMARK   64  A    between atoms: _164  and  _165
REMARK   65  A    between atoms: _168  and  _170
REMARK   66  A    between atoms: _170  and  _171
REMARK   67  A    between atoms: _170  and  _173
REMARK   68  A    between atoms: _173  and  _174
REMARK   69  A    between atoms: _174  and  _175
REMARK   70  A    between atoms: _177  and  _179
REMARK   71  A    between atoms: _179  and  _180
REMARK   72  A    between atoms: _179  and  _182
REMARK   73  A    between atoms: _182  and  _183
REMARK   74  A    between atoms: _183  and  _184
REMARK   75  A    between atoms: _186  and  _188
REMARK   76  A    between atoms: _188  and  _189
REMARK   77  A    between atoms: _188  and  _191
REMARK   78  A    between atoms: _191  and  _192
REMARK   79  A    between atoms: _197  and  _199
REMARK   80  A    between atoms: _199  and  _200
REMARK   81  A    between atoms: _199  and  _202
REMARK   82  A    between atoms: _204  and  _206
REMARK   83  A    between atoms: _206  and  _207
REMARK   84  A    between atoms: _206  and  _209
REMARK   85  A    between atoms: _209  and  _210
REMARK   86  A    between atoms: _215  and  _216
REMARK   87  A    between atoms: _218  and  _220
REMARK   88  A    between atoms: _220  and  _221
REMARK   89  A    between atoms: _220  and  _223
REMARK   90  A    between atoms: _223  and  _224
REMARK   91  A    between atoms: _227  and  _229
REMARK   92  A    between atoms: _229  and  _230
REMARK   93  A    between atoms: _229  and  _232
REMARK   94  A    between atoms: _232  and  _233
REMARK   95  A    between atoms: _238  and  _239
REMARK   96  A    between atoms: _241  and  _243
REMARK   97  A    between atoms: _243  and  _244
REMARK   98  A    between atoms: _243  and  _246
REMARK   99  A    between atoms: _246  and  _247
REMARK  100  A    between atoms: _252  and  _254
REMARK  101  A    between atoms: _254  and  _255
REMARK  102  A    between atoms: _254  and  _257
REMARK  103  A    between atoms: _257  and  _258
REMARK  104  A    between atoms: _258  and  _259
REMARK  105  A    between atoms: _259  and  _260
REMARK  106  A    between atoms: _260  and  _261
REMARK  107  A    between atoms: _265  and  _267
REMARK  108  A    between atoms: _267  and  _268
REMARK  109  A    between atoms: _267  and  _270
REMARK  110  A    between atoms: _270  and  _271
REMARK  111  A    between atoms: _274  and  _276
REMARK  112  A    between atoms: _276  and  _277
REMARK  113  A    between atoms: _276  and  _279
REMARK  114  A    between atoms: _279  and  _280
REMARK  115  A    between atoms: _283  and  _285
REMARK  116  A    between atoms: _285  and  _286
REMARK  117  A    between atoms: _285  and  _288
REMARK  118  A    between atoms: _291  and  _293
REMARK  119  A    between atoms: _293  and  _294
REMARK                            x       y       z     vdW  Elec       q    Type
REMARK                         _______ _______ _______ _____ _____    ______ ____
ROOT
ATOM      1  O   HOH     1      28.724  40.743  13.769  0.00  0.00    +0.000 OA
ENDROOT
TORSDOF 0
REMARK  Name = ../refined-set-2016/4mr3/4mr3_pocket.pdb
REMARK  119 active torsions:
REMARK  status: ('A' for Active; 'I' for Inactive)
REMARK    1  A    between atoms: _1  and  _3
REMARK    2  A    between atoms: _3  and  _4
REMARK    3  A    between atoms: _7  and  _9
REMARK    4  A    between atoms: _9  and  _10
REMARK    5  A    between atoms: _9  and  _12
REMARK    6  A    between atoms: _12  and  _13
REMARK    7  A    between atoms: _24  and  _25
REMARK    8  A    between atoms: _30  and  _32
REMARK    9  A    between atoms: _32  and  _33
REMARK   10  A    between atoms: _32  and  _35
REMARK   11  A    between atoms: _35  and  _36
REMARK   12  A    between atoms: _42  and  _44
REMARK   13  A    between atoms: _44  and  _45
REMARK   14  A    between atoms: _44  and  _47
REMARK   15  A    between atoms: _47  and  _48
REMARK   16  A    between atoms: _48  and  _49
REMARK   17  A    between atoms: _54  and  _56
REMARK   18  A    between atoms: _56  and  _57
REMARK   19  A    between atoms: _56  and  _59
REMARK   20  A    between atoms: _59  and  _60
REMARK   21  A    between atoms: _60  and  _61
REMARK   22  A    between atoms: _67  and  _68
REMARK   23  A    between atoms: _73  and  _75
REMARK   24  A    between atoms: _75  and  _76
REMARK   25  A    between atoms: _75  and  _78
REMARK   26  A    between atoms: _81  and  _83
REMARK   27  A    between atoms: _83  and  _84
REMARK   28  A    between atoms: _83  and  _86
REMARK   29  A    between atoms: _86  and  _87
REMARK   30  A    between atoms: _90  and  _92
REMARK   31  A    between atoms: _92  and  _93
REMARK   32  A    between atoms: _96  and  _98
REMARK   33  A    between atoms: _98  and  _99
REMARK   34  A    between atoms: _98  and  _101
REMARK   35  A    between atoms: _101  and  _102
REMARK   36  A    between atoms: _102  and  _103
REMARK   37  A    between atoms: _103  and  _104
REMARK   38  A    between atoms: _104  and  _105
REMARK   39  A    between atoms: _109  and  _111
REMARK   40  A    between atoms: _111  and  _112
REMARK   41  A    between atoms: _111  and  _114
REMARK   42  A    between atoms: _114  and  _115
REMARK   43  A    between atoms: _118  and  _120
REMARK   44  A    between atoms: _120  and  _121
REMARK   45  A    between atoms: _120  and  _123
REMARK   46  A    between atoms: _123  and  _124
REMARK   47  A    between atoms: _127  and  _129
REMARK   48  A    between atoms: _129  and  _130
REMARK   49  A    between atoms: _129  and  _132
REMARK   50  A    between atoms: _132  and  _133
REMARK   51  A    between atoms: _138  and  _139
REMARK   52  A    between atoms: _141  and  _143
REMARK   53  A    between atoms: _143  and  _144
REMARK   54  A    between atoms: _143  and  _146
REMARK   55  A    between atoms: _146  and  _147
REMARK   56  A    between atoms: _150  and  _152
REMARK   57  A    between atoms: _152  and  _153
REMARK   58  A    between atoms: _152  and  _155
REMARK   59  A    between atoms: _155  and  _156
REMARK   60  A    between atoms: _156  and  _157
REMARK   61  A    between atoms: _159  and  _161
REMARK   62  A    between atoms: _161  and  _162
REMARK   63  A    between atoms: _161  and  _164
REMARK   64  A    between atoms: _164  and  _165
REMARK   65  A    between atoms: _168  and  _170
REMARK   66  A    between atoms: _170  and  _171
REMARK   67  A    between atoms: _170  and  _173
REMARK   68  A    between atoms: _173  and  _174
REMARK   69  A    between atoms: _174  and  _175
REMARK   70  A    between atoms: _177  and  _179
REMARK   71  A    between atoms: _179  and  _180
REMARK   72  A    between atoms: _179  and  _182
REMARK   73  A    between atoms: _182  and  _183
REMARK   74  A    between atoms: _183  and  _184
REMARK   75  A    between atoms: _186  and  _188
REMARK   76  A    between atoms: _188  and  _189
REMARK   77  A    between atoms: _188  and  _191
REMARK   78  A    between atoms: _191  and  _192
REMARK   79  A    between atoms: _197  and  _199
REMARK   80  A    between atoms: _199  and  _200
REMARK   81  A    between atoms: _199  and  _202
REMARK   82  A    between atoms: _204  and  _206
REMARK   83  A    between atoms: _206  and  _207
REMARK   84  A    between atoms: _206  and  _209
REMARK   85  A    between atoms: _209  and  _210
REMARK   86  A    between atoms: _215  and  _216
REMARK   87  A    between atoms: _218  and  _220
REMARK   88  A    between atoms: _220  and  _221
REMARK   89  A    between atoms: _220  and  _223
REMARK   90  A    between atoms: _223  and  _224
REMARK   91  A    between atoms: _227  and  _229
REMARK   92  A    between atoms: _229  and  _230
REMARK   93  A    between atoms: _229  and  _232
REMARK   94  A    between atoms: _232  and  _233
REMARK   95  A    between atoms: _238  and  _239
REMARK   96  A    between atoms: _241  and  _243
REMARK   97  A    between atoms: _243  and  _244
REMARK   98  A    between atoms: _243  and  _246
REMARK   99  A    between atoms: _246  and  _247
REMARK  100  A    between atoms: _252  and  _254
REMARK  101  A    between atoms: _254  and  _255
REMARK  102  A    between atoms: _254  and  _257
REMARK  103  A    between atoms: _257  and  _258
REMARK  104  A    between atoms: _258  and  _259
REMARK  105  A    between atoms: _259  and  _260
REMARK  106  A    between atoms: _260  and  _261
REMARK  107  A    between atoms: _265  and  _267
REMARK  108  A    between atoms: _267  and  _268
REMARK  109  A    between atoms: _267  and  _270
REMARK  110  A    between atoms: _270  and  _271
REMARK  111  A    between atoms: _274  and  _276
REMARK  112  A    between atoms: _276  and  _277
REMARK  113  A    between atoms: _276  and  _279
REMARK  114  A    between atoms: _279  and  _280
REMARK  115  A    between atoms: _283  and  _285
REMARK  116  A    between atoms: _285  and  _286
REMARK  117  A    between atoms: _285  and  _288
REMARK  118  A    between atoms: _291  and  _293
REMARK  119  A    between atoms: _293  and  _294
REMARK                            x       y       z     vdW  Elec       q    Type
REMARK                         _______ _______ _______ _____ _____    ______ ____
ROOT
ATOM      1  O   HOH     1      25.731  28.572  18.902  0.00  0.00    +0.000 OA
ENDROOT
TORSDOF 0
REMARK  Name = ../refined-set-2016/4mr3/4mr3_pocket.pdb
REMARK  119 active torsions:
REMARK  status: ('A' for Active; 'I' for Inactive)
REMARK    1  A    between atoms: _1  and  _3
REMARK    2  A    between atoms: _3  and  _4
REMARK    3  A    between atoms: _7  and  _9
REMARK    4  A    between atoms: _9  and  _10
REMARK    5  A    between atoms: _9  and  _12
REMARK    6  A    between atoms: _12  and  _13
REMARK    7  A    between atoms: _24  and  _25
REMARK    8  A    between atoms: _30  and  _32
REMARK    9  A    between atoms: _32  and  _33
REMARK   10  A    between atoms: _32  and  _35
REMARK   11  A    between atoms: _35  and  _36
REMARK   12  A    between atoms: _42  and  _44
REMARK   13  A    between atoms: _44  and  _45
REMARK   14  A    between atoms: _44  and  _47
REMARK   15  A    between atoms: _47  and  _48
REMARK   16  A    between atoms: _48  and  _49
REMARK   17  A    between atoms: _54  and  _56
REMARK   18  A    between atoms: _56  and  _57
REMARK   19  A    between atoms: _56  and  _59
REMARK   20  A    between atoms: _59  and  _60
REMARK   21  A    between atoms: _60  and  _61
REMARK   22  A    between atoms: _67  and  _68
REMARK   23  A    between atoms: _73  and  _75
REMARK   24  A    between atoms: _75  and  _76
REMARK   25  A    between atoms: _75  and  _78
REMARK   26  A    between atoms: _81  and  _83
REMARK   27  A    between atoms: _83  and  _84
REMARK   28  A    between atoms: _83  and  _86
REMARK   29  A    between atoms: _86  and  _87
REMARK   30  A    between atoms: _90  and  _92
REMARK   31  A    between atoms: _92  and  _93
REMARK   32  A    between atoms: _96  and  _98
REMARK   33  A    between atoms: _98  and  _99
REMARK   34  A    between atoms: _98  and  _101
REMARK   35  A    between atoms: _101  and  _102
REMARK   36  A    between atoms: _102  and  _103
REMARK   37  A    between atoms: _103  and  _104
REMARK   38  A    between atoms: _104  and  _105
REMARK   39  A    between atoms: _109  and  _111
REMARK   40  A    between atoms: _111  and  _112
REMARK   41  A    between atoms: _111  and  _114
REMARK   42  A    between atoms: _114  and  _115
REMARK   43  A    between atoms: _118  and  _120
REMARK   44  A    between atoms: _120  and  _121
REMARK   45  A    between atoms: _120  and  _123
REMARK   46  A    between atoms: _123  and  _124
REMARK   47  A    between atoms: _127  and  _129
REMARK   48  A    between atoms: _129  and  _130
REMARK   49  A    between atoms: _129  and  _132
REMARK   50  A    between atoms: _132  and  _133
REMARK   51  A    between atoms: _138  and  _139
REMARK   52  A    between atoms: _141  and  _143
REMARK   53  A    between atoms: _143  and  _144
REMARK   54  A    between atoms: _143  and  _146
REMARK   55  A    between atoms: _146  and  _147
REMARK   56  A    between atoms: _150  and  _152
REMARK   57  A    between atoms: _152  and  _153
REMARK   58  A    between atoms: _152  and  _155
REMARK   59  A    between atoms: _155  and  _156
REMARK   60  A    between atoms: _156  and  _157
REMARK   61  A    between atoms: _159  and  _161
REMARK   62  A    between atoms: _161  and  _162
REMARK   63  A    between atoms: _161  and  _164
REMARK   64  A    between atoms: _164  and  _165
REMARK   65  A    between atoms: _168  and  _170
REMARK   66  A    between atoms: _170  and  _171
REMARK   67  A    between atoms: _170  and  _173
REMARK   68  A    between atoms: _173  and  _174
REMARK   69  A    between atoms: _174  and  _175
REMARK   70  A    between atoms: _177  and  _179
REMARK   71  A    between atoms: _179  and  _180
REMARK   72  A    between atoms: _179  and  _182
REMARK   73  A    between atoms: _182  and  _183
REMARK   74  A    between atoms: _183  and  _184
REMARK   75  A    between atoms: _186  and  _188
REMARK   76  A    between atoms: _188  and  _189
REMARK   77  A    between atoms: _188  and  _191
REMARK   78  A    between atoms: _191  and  _192
REMARK   79  A    between atoms: _197  and  _199
REMARK   80  A    between atoms: _199  and  _200
REMARK   81  A    between atoms: _199  and  _202
REMARK   82  A    between atoms: _204  and  _206
REMARK   83  A    between atoms: _206  and  _207
REMARK   84  A    between atoms: _206  and  _209
REMARK   85  A    between atoms: _209  and  _210
REMARK   86  A    between atoms: _215  and  _216
REMARK   87  A    between atoms: _218  and  _220
REMARK   88  A    between atoms: _220  and  _221
REMARK   89  A    between atoms: _220  and  _223
REMARK   90  A    between atoms: _223  and  _224
REMARK   91  A    between atoms: _227  and  _229
REMARK   92  A    between atoms: _229  and  _230
REMARK   93  A    between atoms: _229  and  _232
REMARK   94  A    between atoms: _232  and  _233
REMARK   95  A    between atoms: _238  and  _239
REMARK   96  A    between atoms: _241  and  _243
REMARK   97  A    between atoms: _243  and  _244
REMARK   98  A    between atoms: _243  and  _246
REMARK   99  A    between atoms: _246  and  _247
REMARK  100  A    between atoms: _252  and  _254
REMARK  101  A    between atoms: _254  and  _255
REMARK  102  A    between atoms: _254  and  _257
REMARK  103  A    between atoms: _257  and  _258
REMARK  104  A    between atoms: _258  and  _259
REMARK  105  A    between atoms: _259  and  _260
REMARK  106  A    between atoms: _260  and  _261
REMARK  107  A    between atoms: _265  and  _267
REMARK  108  A    between atoms: _267  and  _268
REMARK  109  A    between atoms: _267  and  _270
REMARK  110  A    between atoms: _270  and  _271
REMARK  111  A    between atoms: _274  and  _276
REMARK  112  A    between atoms: _276  and  _277
REMARK  113  A    between atoms: _276  and  _279
REMARK  114  A    between atoms: _279  and  _280
REMARK  115  A    between atoms: _283  and  _285
REMARK  116  A    between atoms: _285  and  _286
REMARK  117  A    between atoms: _285  and  _288
REMARK  118  A    between atoms: _291  and  _293
REMARK  119  A    between atoms: _293  and  _294
REMARK                            x       y       z     vdW  Elec       q    Type
REMARK                         _______ _______ _______ _____ _____    ______ ____
ROOT
ATOM      1  O   HOH     1      22.095  33.729  13.282  0.00  0.00    +0.000 OA
ENDROOT
TORSDOF 0
REMARK  Name = ../refined-set-2016/4mr3/4mr3_pocket.pdb
REMARK  119 active torsions:
REMARK  status: ('A' for Active; 'I' for Inactive)
REMARK    1  A    between atoms: _1  and  _3
REMARK    2  A    between atoms: _3  and  _4
REMARK    3  A    between atoms: _7  and  _9
REMARK    4  A    between atoms: _9  and  _10
REMARK    5  A    between atoms: _9  and  _12
REMARK    6  A    between atoms: _12  and  _13
REMARK    7  A    between atoms: _24  and  _25
REMARK    8  A    between atoms: _30  and  _32
REMARK    9  A    between atoms: _32  and  _33
REMARK   10  A    between atoms: _32  and  _35
REMARK   11  A    between atoms: _35  and  _36
REMARK   12  A    between atoms: _42  and  _44
REMARK   13  A    between atoms: _44  and  _45
REMARK   14  A    between atoms: _44  and  _47
REMARK   15  A    between atoms: _47  and  _48
REMARK   16  A    between atoms: _48  and  _49
REMARK   17  A    between atoms: _54  and  _56
REMARK   18  A    between atoms: _56  and  _57
REMARK   19  A    between atoms: _56  and  _59
REMARK   20  A    between atoms: _59  and  _60
REMARK   21  A    between atoms: _60  and  _61
REMARK   22  A    between atoms: _67  and  _68
REMARK   23  A    between atoms: _73  and  _75
REMARK   24  A    between atoms: _75  and  _76
REMARK   25  A    between atoms: _75  and  _78
REMARK   26  A    between atoms: _81  and  _83
REMARK   27  A    between atoms: _83  and  _84
REMARK   28  A    between atoms: _83  and  _86
REMARK   29  A    between atoms: _86  and  _87
REMARK   30  A    between atoms: _90  and  _92
REMARK   31  A    between atoms: _92  and  _93
REMARK   32  A    between atoms: _96  and  _98
REMARK   33  A    between atoms: _98  and  _99
REMARK   34  A    between atoms: _98  and  _101
REMARK   35  A    between atoms: _101  and  _102
REMARK   36  A    between atoms: _102  and  _103
REMARK   37  A    between atoms: _103  and  _104
REMARK   38  A    between atoms: _104  and  _105
REMARK   39  A    between atoms: _109  and  _111
REMARK   40  A    between atoms: _111  and  _112
REMARK   41  A    between atoms: _111  and  _114
REMARK   42  A    between atoms: _114  and  _115
REMARK   43  A    between atoms: _118  and  _120
REMARK   44  A    between atoms: _120  and  _121
REMARK   45  A    between atoms: _120  and  _123
REMARK   46  A    between atoms: _123  and  _124
REMARK   47  A    between atoms: _127  and  _129
REMARK   48  A    between atoms: _129  and  _130
REMARK   49  A    between atoms: _129  and  _132
REMARK   50  A    between atoms: _132  and  _133
REMARK   51  A    between atoms: _138  and  _139
REMARK   52  A    between atoms: _141  and  _143
REMARK   53  A    between atoms: _143  and  _144
REMARK   54  A    between atoms: _143  and  _146
REMARK   55  A    between atoms: _146  and  _147
REMARK   56  A    between atoms: _150  and  _152
REMARK   57  A    between atoms: _152  and  _153
REMARK   58  A    between atoms: _152  and  _155
REMARK   59  A    between atoms: _155  and  _156
REMARK   60  A    between atoms: _156  and  _157
REMARK   61  A    between atoms: _159  and  _161
REMARK   62  A    between atoms: _161  and  _162
REMARK   63  A    between atoms: _161  and  _164
REMARK   64  A    between atoms: _164  and  _165
REMARK   65  A    between atoms: _168  and  _170
REMARK   66  A    between atoms: _170  and  _171
REMARK   67  A    between atoms: _170  and  _173
REMARK   68  A    between atoms: _173  and  _174
REMARK   69  A    between atoms: _174  and  _175
REMARK   70  A    between atoms: _177  and  _179
REMARK   71  A    between atoms: _179  and  _180
REMARK   72  A    between atoms: _179  and  _182
REMARK   73  A    between atoms: _182  and  _183
REMARK   74  A    between atoms: _183  and  _184
REMARK   75  A    between atoms: _186  and  _188
REMARK   76  A    between atoms: _188  and  _189
REMARK   77  A    between atoms: _188  and  _191
REMARK   78  A    between atoms: _191  and  _192
REMARK   79  A    between atoms: _197  and  _199
REMARK   80  A    between atoms: _199  and  _200
REMARK   81  A    between atoms: _199  and  _202
REMARK   82  A    between atoms: _204  and  _206
REMARK   83  A    between atoms: _206  and  _207
REMARK   84  A    between atoms: _206  and  _209
REMARK   85  A    between atoms: _209  and  _210
REMARK   86  A    between atoms: _215  and  _216
REMARK   87  A    between atoms: _218  and  _220
REMARK   88  A    between atoms: _220  and  _221
REMARK   89  A    between atoms: _220  and  _223
REMARK   90  A    between atoms: _223  and  _224
REMARK   91  A    between atoms: _227  and  _229
REMARK   92  A    between atoms: _229  and  _230
REMARK   93  A    between atoms: _229  and  _232
REMARK   94  A    between atoms: _232  and  _233
REMARK   95  A    between atoms: _238  and  _239
REMARK   96  A    between atoms: _241  and  _243
REMARK   97  A    between atoms: _243  and  _244
REMARK   98  A    between atoms: _243  and  _246
REMARK   99  A    between atoms: _246  and  _247
REMARK  100  A    between atoms: _252  and  _254
REMARK  101  A    between atoms: _254  and  _255
REMARK  102  A    between atoms: _254  and  _257
REMARK  103  A    between atoms: _257  and  _258
REMARK  104  A    between atoms: _258  and  _259
REMARK  105  A    between atoms: _259  and  _260
REMARK  106  A    between atoms: _260  and  _261
REMARK  107  A    between atoms: _265  and  _267
REMARK  108  A    between atoms: _267  and  _268
REMARK  109  A    between atoms: _267  and  _270
REMARK  110  A    between atoms: _270  and  _271
REMARK  111  A    between atoms: _274  and  _276
REMARK  112  A    between atoms: _276  and  _277
REMARK  113  A    between atoms: _276  and  _279
REMARK  114  A    between atoms: _279  and  _280
REMARK  115  A    between atoms: _283  and  _285
REMARK  116  A    between atoms: _285  and  _286
REMARK  117  A    between atoms: _285  and  _288
REMARK  118  A    between atoms: _291  and  _293
REMARK  119  A    between atoms: _293  and  _294
REMARK                            x       y       z     vdW  Elec       q    Type
REMARK                         _______ _______ _______ _____ _____    ______ ____
ROOT
ATOM      1  O   HOH     1      22.178  35.625  17.344  0.00  0.00    +0.000 OA
ENDROOT
TORSDOF 0
REMARK  Name = ../refined-set-2016/4mr3/4mr3_pocket.pdb
REMARK  119 active torsions:
REMARK  status: ('A' for Active; 'I' for Inactive)
REMARK    1  A    between atoms: _1  and  _3
REMARK    2  A    between atoms: _3  and  _4
REMARK    3  A    between atoms: _7  and  _9
REMARK    4  A    between atoms: _9  and  _10
REMARK    5  A    between atoms: _9  and  _12
REMARK    6  A    between atoms: _12  and  _13
REMARK    7  A    between atoms: _24  and  _25
REMARK    8  A    between atoms: _30  and  _32
REMARK    9  A    between atoms: _32  and  _33
REMARK   10  A    between atoms: _32  and  _35
REMARK   11  A    between atoms: _35  and  _36
REMARK   12  A    between atoms: _42  and  _44
REMARK   13  A    between atoms: _44  and  _45
REMARK   14  A    between atoms: _44  and  _47
REMARK   15  A    between atoms: _47  and  _48
REMARK   16  A    between atoms: _48  and  _49
REMARK   17  A    between atoms: _54  and  _56
REMARK   18  A    between atoms: _56  and  _57
REMARK   19  A    between atoms: _56  and  _59
REMARK   20  A    between atoms: _59  and  _60
REMARK   21  A    between atoms: _60  and  _61
REMARK   22  A    between atoms: _67  and  _68
REMARK   23  A    between atoms: _73  and  _75
REMARK   24  A    between atoms: _75  and  _76
REMARK   25  A    between atoms: _75  and  _78
REMARK   26  A    between atoms: _81  and  _83
REMARK   27  A    between atoms: _83  and  _84
REMARK   28  A    between atoms: _83  and  _86
REMARK   29  A    between atoms: _86  and  _87
REMARK   30  A    between atoms: _90  and  _92
REMARK   31  A    between atoms: _92  and  _93
REMARK   32  A    between atoms: _96  and  _98
REMARK   33  A    between atoms: _98  and  _99
REMARK   34  A    between atoms: _98  and  _101
REMARK   35  A    between atoms: _101  and  _102
REMARK   36  A    between atoms: _102  and  _103
REMARK   37  A    between atoms: _103  and  _104
REMARK   38  A    between atoms: _104  and  _105
REMARK   39  A    between atoms: _109  and  _111
REMARK   40  A    between atoms: _111  and  _112
REMARK   41  A    between atoms: _111  and  _114
REMARK   42  A    between atoms: _114  and  _115
REMARK   43  A    between atoms: _118  and  _120
REMARK   44  A    between atoms: _120  and  _121
REMARK   45  A    between atoms: _120  and  _123
REMARK   46  A    between atoms: _123  and  _124
REMARK   47  A    between atoms: _127  and  _129
REMARK   48  A    between atoms: _129  and  _130
REMARK   49  A    between atoms: _129  and  _132
REMARK   50  A    between atoms: _132  and  _133
REMARK   51  A    between atoms: _138  and  _139
REMARK   52  A    between atoms: _141  and  _143
REMARK   53  A    between atoms: _143  and  _144
REMARK   54  A    between atoms: _143  and  _146
REMARK   55  A    between atoms: _146  and  _147
REMARK   56  A    between atoms: _150  and  _152
REMARK   57  A    between atoms: _152  and  _153
REMARK   58  A    between atoms: _152  and  _155
REMARK   59  A    between atoms: _155  and  _156
REMARK   60  A    between atoms: _156  and  _157
REMARK   61  A    between atoms: _159  and  _161
REMARK   62  A    between atoms: _161  and  _162
REMARK   63  A    between atoms: _161  and  _164
REMARK   64  A    between atoms: _164  and  _165
REMARK   65  A    between atoms: _168  and  _170
REMARK   66  A    between atoms: _170  and  _171
REMARK   67  A    between atoms: _170  and  _173
REMARK   68  A    between atoms: _173  and  _174
REMARK   69  A    between atoms: _174  and  _175
REMARK   70  A    between atoms: _177  and  _179
REMARK   71  A    between atoms: _179  and  _180
REMARK   72  A    between atoms: _179  and  _182
REMARK   73  A    between atoms: _182  and  _183
REMARK   74  A    between atoms: _183  and  _184
REMARK   75  A    between atoms: _186  and  _188
REMARK   76  A    between atoms: _188  and  _189
REMARK   77  A    between atoms: _188  and  _191
REMARK   78  A    between atoms: _191  and  _192
REMARK   79  A    between atoms: _197  and  _199
REMARK   80  A    between atoms: _199  and  _200
REMARK   81  A    between atoms: _199  and  _202
REMARK   82  A    between atoms: _204  and  _206
REMARK   83  A    between atoms: _206  and  _207
REMARK   84  A    between atoms: _206  and  _209
REMARK   85  A    between atoms: _209  and  _210
REMARK   86  A    between atoms: _215  and  _216
REMARK   87  A    between atoms: _218  and  _220
REMARK   88  A    between atoms: _220  and  _221
REMARK   89  A    between atoms: _220  and  _223
REMARK   90  A    between atoms: _223  and  _224
REMARK   91  A    between atoms: _227  and  _229
REMARK   92  A    between atoms: _229  and  _230
REMARK   93  A    between atoms: _229  and  _232
REMARK   94  A    between atoms: _232  and  _233
REMARK   95  A    between atoms: _238  and  _239
REMARK   96  A    between atoms: _241  and  _243
REMARK   97  A    between atoms: _243  and  _244
REMARK   98  A    between atoms: _243  and  _246
REMARK   99  A    between atoms: _246  and  _247
REMARK  100  A    between atoms: _252  and  _254
REMARK  101  A    between atoms: _254  and  _255
REMARK  102  A    between atoms: _254  and  _257
REMARK  103  A    between atoms: _257  and  _258
REMARK  104  A    between atoms: _258  and  _259
REMARK  105  A    between atoms: _259  and  _260
REMARK  106  A    between atoms: _260  and  _261
REMARK  107  A    between atoms: _265  and  _267
REMARK  108  A    between atoms: _267  and  _268
REMARK  109  A    between atoms: _267  and  _270
REMARK  110  A    between atoms: _270  and  _271
REMARK  111  A    between atoms: _274  and  _276
REMARK  112  A    between atoms: _276  and  _277
REMARK  113  A    between atoms: _276  and  _279
REMARK  114  A    between atoms: _279  and  _280
REMARK  115  A    between atoms: _283  and  _285
REMARK  116  A    between atoms: _285  and  _286
REMARK  117  A    between atoms: _285  and  _288
REMARK  118  A    between atoms: _291  and  _293
REMARK  119  A    between atoms: _293  and  _294
REMARK                            x       y       z     vdW  Elec       q    Type
REMARK                         _______ _______ _______ _____ _____    ______ ____
ROOT
ATOM      1  O   HOH     1      23.720  28.830  16.167  0.00  0.00    +0.000 OA
ENDROOT
TORSDOF 0
REMARK  Name = ../refined-set-2016/4mr3/4mr3_pocket.pdb
REMARK  119 active torsions:
REMARK  status: ('A' for Active; 'I' for Inactive)
REMARK    1  A    between atoms: _1  and  _3
REMARK    2  A    between atoms: _3  and  _4
REMARK    3  A    between atoms: _7  and  _9
REMARK    4  A    between atoms: _9  and  _10
REMARK    5  A    between atoms: _9  and  _12
REMARK    6  A    between atoms: _12  and  _13
REMARK    7  A    between atoms: _24  and  _25
REMARK    8  A    between atoms: _30  and  _32
REMARK    9  A    between atoms: _32  and  _33
REMARK   10  A    between atoms: _32  and  _35
REMARK   11  A    between atoms: _35  and  _36
REMARK   12  A    between atoms: _42  and  _44
REMARK   13  A    between atoms: _44  and  _45
REMARK   14  A    between atoms: _44  and  _47
REMARK   15  A    between atoms: _47  and  _48
REMARK   16  A    between atoms: _48  and  _49
REMARK   17  A    between atoms: _54  and  _56
REMARK   18  A    between atoms: _56  and  _57
REMARK   19  A    between atoms: _56  and  _59
REMARK   20  A    between atoms: _59  and  _60
REMARK   21  A    between atoms: _60  and  _61
REMARK   22  A    between atoms: _67  and  _68
REMARK   23  A    between atoms: _73  and  _75
REMARK   24  A    between atoms: _75  and  _76
REMARK   25  A    between atoms: _75  and  _78
REMARK   26  A    between atoms: _81  and  _83
REMARK   27  A    between atoms: _83  and  _84
REMARK   28  A    between atoms: _83  and  _86
REMARK   29  A    between atoms: _86  and  _87
REMARK   30  A    between atoms: _90  and  _92
REMARK   31  A    between atoms: _92  and  _93
REMARK   32  A    between atoms: _96  and  _98
REMARK   33  A    between atoms: _98  and  _99
REMARK   34  A    between atoms: _98  and  _101
REMARK   35  A    between atoms: _101  and  _102
REMARK   36  A    between atoms: _102  and  _103
REMARK   37  A    between atoms: _103  and  _104
REMARK   38  A    between atoms: _104  and  _105
REMARK   39  A    between atoms: _109  and  _111
REMARK   40  A    between atoms: _111  and  _112
REMARK   41  A    between atoms: _111  and  _114
REMARK   42  A    between atoms: _114  and  _115
REMARK   43  A    between atoms: _118  and  _120
REMARK   44  A    between atoms: _120  and  _121
REMARK   45  A    between atoms: _120  and  _123
REMARK   46  A    between atoms: _123  and  _124
REMARK   47  A    between atoms: _127  and  _129
REMARK   48  A    between atoms: _129  and  _130
REMARK   49  A    between atoms: _129  and  _132
REMARK   50  A    between atoms: _132  and  _133
REMARK   51  A    between atoms: _138  and  _139
REMARK   52  A    between atoms: _141  and  _143
REMARK   53  A    between atoms: _143  and  _144
REMARK   54  A    between atoms: _143  and  _146
REMARK   55  A    between atoms: _146  and  _147
REMARK   56  A    between atoms: _150  and  _152
REMARK   57  A    between atoms: _152  and  _153
REMARK   58  A    between atoms: _152  and  _155
REMARK   59  A    between atoms: _155  and  _156
REMARK   60  A    between atoms: _156  and  _157
REMARK   61  A    between atoms: _159  and  _161
REMARK   62  A    between atoms: _161  and  _162
REMARK   63  A    between atoms: _161  and  _164
REMARK   64  A    between atoms: _164  and  _165
REMARK   65  A    between atoms: _168  and  _170
REMARK   66  A    between atoms: _170  and  _171
REMARK   67  A    between atoms: _170  and  _173
REMARK   68  A    between atoms: _173  and  _174
REMARK   69  A    between atoms: _174  and  _175
REMARK   70  A    between atoms: _177  and  _179
REMARK   71  A    between atoms: _179  and  _180
REMARK   72  A    between atoms: _179  and  _182
REMARK   73  A    between atoms: _182  and  _183
REMARK   74  A    between atoms: _183  and  _184
REMARK   75  A    between atoms: _186  and  _188
REMARK   76  A    between atoms: _188  and  _189
REMARK   77  A    between atoms: _188  and  _191
REMARK   78  A    between atoms: _191  and  _192
REMARK   79  A    between atoms: _197  and  _199
REMARK   80  A    between atoms: _199  and  _200
REMARK   81  A    between atoms: _199  and  _202
REMARK   82  A    between atoms: _204  and  _206
REMARK   83  A    between atoms: _206  and  _207
REMARK   84  A    between atoms: _206  and  _209
REMARK   85  A    between atoms: _209  and  _210
REMARK   86  A    between atoms: _215  and  _216
REMARK   87  A    between atoms: _218  and  _220
REMARK   88  A    between atoms: _220  and  _221
REMARK   89  A    between atoms: _220  and  _223
REMARK   90  A    between atoms: _223  and  _224
REMARK   91  A    between atoms: _227  and  _229
REMARK   92  A    between atoms: _229  and  _230
REMARK   93  A    between atoms: _229  and  _232
REMARK   94  A    between atoms: _232  and  _233
REMARK   95  A    between atoms: _238  and  _239
REMARK   96  A    between atoms: _241  and  _243
REMARK   97  A    between atoms: _243  and  _244
REMARK   98  A    between atoms: _243  and  _246
REMARK   99  A    between atoms: _246  and  _247
REMARK  100  A    between atoms: _252  and  _254
REMARK  101  A    between atoms: _254  and  _255
REMARK  102  A    between atoms: _254  and  _257
REMARK  103  A    between atoms: _257  and  _258
REMARK  104  A    between atoms: _258  and  _259
REMARK  105  A    between atoms: _259  and  _260
REMARK  106  A    between atoms: _260  and  _261
REMARK  107  A    between atoms: _265  and  _267
REMARK  108  A    between atoms: _267  and  _268
REMARK  109  A    between atoms: _267  and  _270
REMARK  110  A    between atoms: _270  and  _271
REMARK  111  A    between atoms: _274  and  _276
REMARK  112  A    between atoms: _276  and  _277
REMARK  113  A    between atoms: _276  and  _279
REMARK  114  A    between atoms: _279  and  _280
REMARK  115  A    between atoms: _283  and  _285
REMARK  116  A    between atoms: _285  and  _286
REMARK  117  A    between atoms: _285  and  _288
REMARK  118  A    between atoms: _291  and  _293
REMARK  119  A    between atoms: _293  and  _294
REMARK                            x       y       z     vdW  Elec       q    Type
REMARK                         _______ _______ _______ _____ _____    ______ ____
ROOT
ATOM      1  O   HOH     1      31.046  40.009  17.379  0.00  0.00    +0.000 OA
ENDROOT
TORSDOF 0
REMARK  Name = ../refined-set-2016/4mr3/4mr3_pocket.pdb
REMARK  119 active torsions:
REMARK  status: ('A' for Active; 'I' for Inactive)
REMARK    1  A    between atoms: _1  and  _3
REMARK    2  A    between atoms: _3  and  _4
REMARK    3  A    between atoms: _7  and  _9
REMARK    4  A    between atoms: _9  and  _10
REMARK    5  A    between atoms: _9  and  _12
REMARK    6  A    between atoms: _12  and  _13
REMARK    7  A    between atoms: _24  and  _25
REMARK    8  A    between atoms: _30  and  _32
REMARK    9  A    between atoms: _32  and  _33
REMARK   10  A    between atoms: _32  and  _35
REMARK   11  A    between atoms: _35  and  _36
REMARK   12  A    between atoms: _42  and  _44
REMARK   13  A    between atoms: _44  and  _45
REMARK   14  A    between atoms: _44  and  _47
REMARK   15  A    between atoms: _47  and  _48
REMARK   16  A    between atoms: _48  and  _49
REMARK   17  A    between atoms: _54  and  _56
REMARK   18  A    between atoms: _56  and  _57
REMARK   19  A    between atoms: _56  and  _59
REMARK   20  A    between atoms: _59  and  _60
REMARK   21  A    between atoms: _60  and  _61
REMARK   22  A    between atoms: _67  and  _68
REMARK   23  A    between atoms: _73  and  _75
REMARK   24  A    between atoms: _75  and  _76
REMARK   25  A    between atoms: _75  and  _78
REMARK   26  A    between atoms: _81  and  _83
REMARK   27  A    between atoms: _83  and  _84
REMARK   28  A    between atoms: _83  and  _86
REMARK   29  A    between atoms: _86  and  _87
REMARK   30  A    between atoms: _90  and  _92
REMARK   31  A    between atoms: _92  and  _93
REMARK   32  A    between atoms: _96  and  _98
REMARK   33  A    between atoms: _98  and  _99
REMARK   34  A    between atoms: _98  and  _101
REMARK   35  A    between atoms: _101  and  _102
REMARK   36  A    between atoms: _102  and  _103
REMARK   37  A    between atoms: _103  and  _104
REMARK   38  A    between atoms: _104  and  _105
REMARK   39  A    between atoms: _109  and  _111
REMARK   40  A    between atoms: _111  and  _112
REMARK   41  A    between atoms: _111  and  _114
REMARK   42  A    between atoms: _114  and  _115
REMARK   43  A    between atoms: _118  and  _120
REMARK   44  A    between atoms: _120  and  _121
REMARK   45  A    between atoms: _120  and  _123
REMARK   46  A    between atoms: _123  and  _124
REMARK   47  A    between atoms: _127  and  _129
REMARK   48  A    between atoms: _129  and  _130
REMARK   49  A    between atoms: _129  and  _132
REMARK   50  A    between atoms: _132  and  _133
REMARK   51  A    between atoms: _138  and  _139
REMARK   52  A    between atoms: _141  and  _143
REMARK   53  A    between atoms: _143  and  _144
REMARK   54  A    between atoms: _143  and  _146
REMARK   55  A    between atoms: _146  and  _147
REMARK   56  A    between atoms: _150  and  _152
REMARK   57  A    between atoms: _152  and  _153
REMARK   58  A    between atoms: _152  and  _155
REMARK   59  A    between atoms: _155  and  _156
REMARK   60  A    between atoms: _156  and  _157
REMARK   61  A    between atoms: _159  and  _161
REMARK   62  A    between atoms: _161  and  _162
REMARK   63  A    between atoms: _161  and  _164
REMARK   64  A    between atoms: _164  and  _165
REMARK   65  A    between atoms: _168  and  _170
REMARK   66  A    between atoms: _170  and  _171
REMARK   67  A    between atoms: _170  and  _173
REMARK   68  A    between atoms: _173  and  _174
REMARK   69  A    between atoms: _174  and  _175
REMARK   70  A    between atoms: _177  and  _179
REMARK   71  A    between atoms: _179  and  _180
REMARK   72  A    between atoms: _179  and  _182
REMARK   73  A    between atoms: _182  and  _183
REMARK   74  A    between atoms: _183  and  _184
REMARK   75  A    between atoms: _186  and  _188
REMARK   76  A    between atoms: _188  and  _189
REMARK   77  A    between atoms: _188  and  _191
REMARK   78  A    between atoms: _191  and  _192
REMARK   79  A    between atoms: _197  and  _199
REMARK   80  A    between atoms: _199  and  _200
REMARK   81  A    between atoms: _199  and  _202
REMARK   82  A    between atoms: _204  and  _206
REMARK   83  A    between atoms: _206  and  _207
REMARK   84  A    between atoms: _206  and  _209
REMARK   85  A    between atoms: _209  and  _210
REMARK   86  A    between atoms: _215  and  _216
REMARK   87  A    between atoms: _218  and  _220
REMARK   88  A    between atoms: _220  and  _221
REMARK   89  A    between atoms: _220  and  _223
REMARK   90  A    between atoms: _223  and  _224
REMARK   91  A    between atoms: _227  and  _229
REMARK   92  A    between atoms: _229  and  _230
REMARK   93  A    between atoms: _229  and  _232
REMARK   94  A    between atoms: _232  and  _233
REMARK   95  A    between atoms: _238  and  _239
REMARK   96  A    between atoms: _241  and  _243
REMARK   97  A    between atoms: _243  and  _244
REMARK   98  A    between atoms: _243  and  _246
REMARK   99  A    between atoms: _246  and  _247
REMARK  100  A    between atoms: _252  and  _254
REMARK  101  A    between atoms: _254  and  _255
REMARK  102  A    between atoms: _254  and  _257
REMARK  103  A    between atoms: _257  and  _258
REMARK  104  A    between atoms: _258  and  _259
REMARK  105  A    between atoms: _259  and  _260
REMARK  106  A    between atoms: _260  and  _261
REMARK  107  A    between atoms: _265  and  _267
REMARK  108  A    between atoms: _267  and  _268
REMARK  109  A    between atoms: _267  and  _270
REMARK  110  A    between atoms: _270  and  _271
REMARK  111  A    between atoms: _274  and  _276
REMARK  112  A    between atoms: _276  and  _277
REMARK  113  A    between atoms: _276  and  _279
REMARK  114  A    between atoms: _279  and  _280
REMARK  115  A    between atoms: _283  and  _285
REMARK  116  A    between atoms: _285  and  _286
REMARK  117  A    between atoms: _285  and  _288
REMARK  118  A    between atoms: _291  and  _293
REMARK  119  A    between atoms: _293  and  _294
REMARK                            x       y       z     vdW  Elec       q    Type
REMARK                         _______ _______ _______ _____ _____    ______ ____
ROOT
ATOM      1  O   HOH     1      23.418  39.828  24.277  0.00  0.00    +0.000 OA
ENDROOT
TORSDOF 0
REMARK  Name = ../refined-set-2016/4mr3/4mr3_pocket.pdb
REMARK  119 active torsions:
REMARK  status: ('A' for Active; 'I' for Inactive)
REMARK    1  A    between atoms: _1  and  _3
REMARK    2  A    between atoms: _3  and  _4
REMARK    3  A    between atoms: _7  and  _9
REMARK    4  A    between atoms: _9  and  _10
REMARK    5  A    between atoms: _9  and  _12
REMARK    6  A    between atoms: _12  and  _13
REMARK    7  A    between atoms: _24  and  _25
REMARK    8  A    between atoms: _30  and  _32
REMARK    9  A    between atoms: _32  and  _33
REMARK   10  A    between atoms: _32  and  _35
REMARK   11  A    between atoms: _35  and  _36
REMARK   12  A    between atoms: _42  and  _44
REMARK   13  A    between atoms: _44  and  _45
REMARK   14  A    between atoms: _44  and  _47
REMARK   15  A    between atoms: _47  and  _48
REMARK   16  A    between atoms: _48  and  _49
REMARK   17  A    between atoms: _54  and  _56
REMARK   18  A    between atoms: _56  and  _57
REMARK   19  A    between atoms: _56  and  _59
REMARK   20  A    between atoms: _59  and  _60
REMARK   21  A    between atoms: _60  and  _61
REMARK   22  A    between atoms: _67  and  _68
REMARK   23  A    between atoms: _73  and  _75
REMARK   24  A    between atoms: _75  and  _76
REMARK   25  A    between atoms: _75  and  _78
REMARK   26  A    between atoms: _81  and  _83
REMARK   27  A    between atoms: _83  and  _84
REMARK   28  A    between atoms: _83  and  _86
REMARK   29  A    between atoms: _86  and  _87
REMARK   30  A    between atoms: _90  and  _92
REMARK   31  A    between atoms: _92  and  _93
REMARK   32  A    between atoms: _96  and  _98
REMARK   33  A    between atoms: _98  and  _99
REMARK   34  A    between atoms: _98  and  _101
REMARK   35  A    between atoms: _101  and  _102
REMARK   36  A    between atoms: _102  and  _103
REMARK   37  A    between atoms: _103  and  _104
REMARK   38  A    between atoms: _104  and  _105
REMARK   39  A    between atoms: _109  and  _111
REMARK   40  A    between atoms: _111  and  _112
REMARK   41  A    between atoms: _111  and  _114
REMARK   42  A    between atoms: _114  and  _115
REMARK   43  A    between atoms: _118  and  _120
REMARK   44  A    between atoms: _120  and  _121
REMARK   45  A    between atoms: _120  and  _123
REMARK   46  A    between atoms: _123  and  _124
REMARK   47  A    between atoms: _127  and  _129
REMARK   48  A    between atoms: _129  and  _130
REMARK   49  A    between atoms: _129  and  _132
REMARK   50  A    between atoms: _132  and  _133
REMARK   51  A    between atoms: _138  and  _139
REMARK   52  A    between atoms: _141  and  _143
REMARK   53  A    between atoms: _143  and  _144
REMARK   54  A    between atoms: _143  and  _146
REMARK   55  A    between atoms: _146  and  _147
REMARK   56  A    between atoms: _150  and  _152
REMARK   57  A    between atoms: _152  and  _153
REMARK   58  A    between atoms: _152  and  _155
REMARK   59  A    between atoms: _155  and  _156
REMARK   60  A    between atoms: _156  and  _157
REMARK   61  A    between atoms: _159  and  _161
REMARK   62  A    between atoms: _161  and  _162
REMARK   63  A    between atoms: _161  and  _164
REMARK   64  A    between atoms: _164  and  _165
REMARK   65  A    between atoms: _168  and  _170
REMARK   66  A    between atoms: _170  and  _171
REMARK   67  A    between atoms: _170  and  _173
REMARK   68  A    between atoms: _173  and  _174
REMARK   69  A    between atoms: _174  and  _175
REMARK   70  A    between atoms: _177  and  _179
REMARK   71  A    between atoms: _179  and  _180
REMARK   72  A    between atoms: _179  and  _182
REMARK   73  A    between atoms: _182  and  _183
REMARK   74  A    between atoms: _183  and  _184
REMARK   75  A    between atoms: _186  and  _188
REMARK   76  A    between atoms: _188  and  _189
REMARK   77  A    between atoms: _188  and  _191
REMARK   78  A    between atoms: _191  and  _192
REMARK   79  A    between atoms: _197  and  _199
REMARK   80  A    between atoms: _199  and  _200
REMARK   81  A    between atoms: _199  and  _202
REMARK   82  A    between atoms: _204  and  _206
REMARK   83  A    between atoms: _206  and  _207
REMARK   84  A    between atoms: _206  and  _209
REMARK   85  A    between atoms: _209  and  _210
REMARK   86  A    between atoms: _215  and  _216
REMARK   87  A    between atoms: _218  and  _220
REMARK   88  A    between atoms: _220  and  _221
REMARK   89  A    between atoms: _220  and  _223
REMARK   90  A    between atoms: _223  and  _224
REMARK   91  A    between atoms: _227  and  _229
REMARK   92  A    between atoms: _229  and  _230
REMARK   93  A    between atoms: _229  and  _232
REMARK   94  A    between atoms: _232  and  _233
REMARK   95  A    between atoms: _238  and  _239
REMARK   96  A    between atoms: _241  and  _243
REMARK   97  A    between atoms: _243  and  _244
REMARK   98  A    between atoms: _243  and  _246
REMARK   99  A    between atoms: _246  and  _247
REMARK  100  A    between atoms: _252  and  _254
REMARK  101  A    between atoms: _254  and  _255
REMARK  102  A    between atoms: _254  and  _257
REMARK  103  A    between atoms: _257  and  _258
REMARK  104  A    between atoms: _258  and  _259
REMARK  105  A    between atoms: _259  and  _260
REMARK  106  A    between atoms: _260  and  _261
REMARK  107  A    between atoms: _265  and  _267
REMARK  108  A    between atoms: _267  and  _268
REMARK  109  A    between atoms: _267  and  _270
REMARK  110  A    between atoms: _270  and  _271
REMARK  111  A    between atoms: _274  and  _276
REMARK  112  A    between atoms: _276  and  _277
REMARK  113  A    between atoms: _276  and  _279
REMARK  114  A    between atoms: _279  and  _280
REMARK  115  A    between atoms: _283  and  _285
REMARK  116  A    between atoms: _285  and  _286
REMARK  117  A    between atoms: _285  and  _288
REMARK  118  A    between atoms: _291  and  _293
REMARK  119  A    between atoms: _293  and  _294
REMARK                            x       y       z     vdW  Elec       q    Type
REMARK                         _______ _______ _______ _____ _____    ______ ____
ROOT
ATOM      1  O   HOH     1      24.323  28.104  21.142  0.00  0.00    +0.000 OA
ENDROOT
TORSDOF 0
REMARK  Name = ../refined-set-2016/4mr3/4mr3_pocket.pdb
REMARK  119 active torsions:
REMARK  status: ('A' for Active; 'I' for Inactive)
REMARK    1  A    between atoms: _1  and  _3
REMARK    2  A    between atoms: _3  and  _4
REMARK    3  A    between atoms: _7  and  _9
REMARK    4  A    between atoms: _9  and  _10
REMARK    5  A    between atoms: _9  and  _12
REMARK    6  A    between atoms: _12  and  _13
REMARK    7  A    between atoms: _24  and  _25
REMARK    8  A    between atoms: _30  and  _32
REMARK    9  A    between atoms: _32  and  _33
REMARK   10  A    between atoms: _32  and  _35
REMARK   11  A    between atoms: _35  and  _36
REMARK   12  A    between atoms: _42  and  _44
REMARK   13  A    between atoms: _44  and  _45
REMARK   14  A    between atoms: _44  and  _47
REMARK   15  A    between atoms: _47  and  _48
REMARK   16  A    between atoms: _48  and  _49
REMARK   17  A    between atoms: _54  and  _56
REMARK   18  A    between atoms: _56  and  _57
REMARK   19  A    between atoms: _56  and  _59
REMARK   20  A    between atoms: _59  and  _60
REMARK   21  A    between atoms: _60  and  _61
REMARK   22  A    between atoms: _67  and  _68
REMARK   23  A    between atoms: _73  and  _75
REMARK   24  A    between atoms: _75  and  _76
REMARK   25  A    between atoms: _75  and  _78
REMARK   26  A    between atoms: _81  and  _83
REMARK   27  A    between atoms: _83  and  _84
REMARK   28  A    between atoms: _83  and  _86
REMARK   29  A    between atoms: _86  and  _87
REMARK   30  A    between atoms: _90  and  _92
REMARK   31  A    between atoms: _92  and  _93
REMARK   32  A    between atoms: _96  and  _98
REMARK   33  A    between atoms: _98  and  _99
REMARK   34  A    between atoms: _98  and  _101
REMARK   35  A    between atoms: _101  and  _102
REMARK   36  A    between atoms: _102  and  _103
REMARK   37  A    between atoms: _103  and  _104
REMARK   38  A    between atoms: _104  and  _105
REMARK   39  A    between atoms: _109  and  _111
REMARK   40  A    between atoms: _111  and  _112
REMARK   41  A    between atoms: _111  and  _114
REMARK   42  A    between atoms: _114  and  _115
REMARK   43  A    between atoms: _118  and  _120
REMARK   44  A    between atoms: _120  and  _121
REMARK   45  A    between atoms: _120  and  _123
REMARK   46  A    between atoms: _123  and  _124
REMARK   47  A    between atoms: _127  and  _129
REMARK   48  A    between atoms: _129  and  _130
REMARK   49  A    between atoms: _129  and  _132
REMARK   50  A    between atoms: _132  and  _133
REMARK   51  A    between atoms: _138  and  _139
REMARK   52  A    between atoms: _141  and  _143
REMARK   53  A    between atoms: _143  and  _144
REMARK   54  A    between atoms: _143  and  _146
REMARK   55  A    between atoms: _146  and  _147
REMARK   56  A    between atoms: _150  and  _152
REMARK   57  A    between atoms: _152  and  _153
REMARK   58  A    between atoms: _152  and  _155
REMARK   59  A    between atoms: _155  and  _156
REMARK   60  A    between atoms: _156  and  _157
REMARK   61  A    between atoms: _159  and  _161
REMARK   62  A    between atoms: _161  and  _162
REMARK   63  A    between atoms: _161  and  _164
REMARK   64  A    between atoms: _164  and  _165
REMARK   65  A    between atoms: _168  and  _170
REMARK   66  A    between atoms: _170  and  _171
REMARK   67  A    between atoms: _170  and  _173
REMARK   68  A    between atoms: _173  and  _174
REMARK   69  A    between atoms: _174  and  _175
REMARK   70  A    between atoms: _177  and  _179
REMARK   71  A    between atoms: _179  and  _180
REMARK   72  A    between atoms: _179  and  _182
REMARK   73  A    between atoms: _182  and  _183
REMARK   74  A    between atoms: _183  and  _184
REMARK   75  A    between atoms: _186  and  _188
REMARK   76  A    between atoms: _188  and  _189
REMARK   77  A    between atoms: _188  and  _191
REMARK   78  A    between atoms: _191  and  _192
REMARK   79  A    between atoms: _197  and  _199
REMARK   80  A    between atoms: _199  and  _200
REMARK   81  A    between atoms: _199  and  _202
REMARK   82  A    between atoms: _204  and  _206
REMARK   83  A    between atoms: _206  and  _207
REMARK   84  A    between atoms: _206  and  _209
REMARK   85  A    between atoms: _209  and  _210
REMARK   86  A    between atoms: _215  and  _216
REMARK   87  A    between atoms: _218  and  _220
REMARK   88  A    between atoms: _220  and  _221
REMARK   89  A    between atoms: _220  and  _223
REMARK   90  A    between atoms: _223  and  _224
REMARK   91  A    between atoms: _227  and  _229
REMARK   92  A    between atoms: _229  and  _230
REMARK   93  A    between atoms: _229  and  _232
REMARK   94  A    between atoms: _232  and  _233
REMARK   95  A    between atoms: _238  and  _239
REMARK   96  A    between atoms: _241  and  _243
REMARK   97  A    between atoms: _243  and  _244
REMARK   98  A    between atoms: _243  and  _246
REMARK   99  A    between atoms: _246  and  _247
REMARK  100  A    between atoms: _252  and  _254
REMARK  101  A    between atoms: _254  and  _255
REMARK  102  A    between atoms: _254  and  _257
REMARK  103  A    between atoms: _257  and  _258
REMARK  104  A    between atoms: _258  and  _259
REMARK  105  A    between atoms: _259  and  _260
REMARK  106  A    between atoms: _260  and  _261
REMARK  107  A    between atoms: _265  and  _267
REMARK  108  A    between atoms: _267  and  _268
REMARK  109  A    between atoms: _267  and  _270
REMARK  110  A    between atoms: _270  and  _271
REMARK  111  A    between atoms: _274  and  _276
REMARK  112  A    between atoms: _276  and  _277
REMARK  113  A    between atoms: _276  and  _279
REMARK  114  A    between atoms: _279  and  _280
REMARK  115  A    between atoms: _283  and  _285
REMARK  116  A    between atoms: _285  and  _286
REMARK  117  A    between atoms: _285  and  _288
REMARK  118  A    between atoms: _291  and  _293
REMARK  119  A    between atoms: _293  and  _294
REMARK                            x       y       z     vdW  Elec       q    Type
REMARK                         _______ _______ _______ _____ _____    ______ ____
ROOT
ATOM      1  O   HOH     1      21.179  40.796  23.186  0.00  0.00    +0.000 OA
ENDROOT
TORSDOF 0
REMARK  Name = ../refined-set-2016/4mr3/4mr3_pocket.pdb
REMARK  119 active torsions:
REMARK  status: ('A' for Active; 'I' for Inactive)
REMARK    1  A    between atoms: _1  and  _3
REMARK    2  A    between atoms: _3  and  _4
REMARK    3  A    between atoms: _7  and  _9
REMARK    4  A    between atoms: _9  and  _10
REMARK    5  A    between atoms: _9  and  _12
REMARK    6  A    between atoms: _12  and  _13
REMARK    7  A    between atoms: _24  and  _25
REMARK    8  A    between atoms: _30  and  _32
REMARK    9  A    between atoms: _32  and  _33
REMARK   10  A    between atoms: _32  and  _35
REMARK   11  A    between atoms: _35  and  _36
REMARK   12  A    between atoms: _42  and  _44
REMARK   13  A    between atoms: _44  and  _45
REMARK   14  A    between atoms: _44  and  _47
REMARK   15  A    between atoms: _47  and  _48
REMARK   16  A    between atoms: _48  and  _49
REMARK   17  A    between atoms: _54  and  _56
REMARK   18  A    between atoms: _56  and  _57
REMARK   19  A    between atoms: _56  and  _59
REMARK   20  A    between atoms: _59  and  _60
REMARK   21  A    between atoms: _60  and  _61
REMARK   22  A    between atoms: _67  and  _68
REMARK   23  A    between atoms: _73  and  _75
REMARK   24  A    between atoms: _75  and  _76
REMARK   25  A    between atoms: _75  and  _78
REMARK   26  A    between atoms: _81  and  _83
REMARK   27  A    between atoms: _83  and  _84
REMARK   28  A    between atoms: _83  and  _86
REMARK   29  A    between atoms: _86  and  _87
REMARK   30  A    between atoms: _90  and  _92
REMARK   31  A    between atoms: _92  and  _93
REMARK   32  A    between atoms: _96  and  _98
REMARK   33  A    between atoms: _98  and  _99
REMARK   34  A    between atoms: _98  and  _101
REMARK   35  A    between atoms: _101  and  _102
REMARK   36  A    between atoms: _102  and  _103
REMARK   37  A    between atoms: _103  and  _104
REMARK   38  A    between atoms: _104  and  _105
REMARK   39  A    between atoms: _109  and  _111
REMARK   40  A    between atoms: _111  and  _112
REMARK   41  A    between atoms: _111  and  _114
REMARK   42  A    between atoms: _114  and  _115
REMARK   43  A    between atoms: _118  and  _120
REMARK   44  A    between atoms: _120  and  _121
REMARK   45  A    between atoms: _120  and  _123
REMARK   46  A    between atoms: _123  and  _124
REMARK   47  A    between atoms: _127  and  _129
REMARK   48  A    between atoms: _129  and  _130
REMARK   49  A    between atoms: _129  and  _132
REMARK   50  A    between atoms: _132  and  _133
REMARK   51  A    between atoms: _138  and  _139
REMARK   52  A    between atoms: _141  and  _143
REMARK   53  A    between atoms: _143  and  _144
REMARK   54  A    between atoms: _143  and  _146
REMARK   55  A    between atoms: _146  and  _147
REMARK   56  A    between atoms: _150  and  _152
REMARK   57  A    between atoms: _152  and  _153
REMARK   58  A    between atoms: _152  and  _155
REMARK   59  A    between atoms: _155  and  _156
REMARK   60  A    between atoms: _156  and  _157
REMARK   61  A    between atoms: _159  and  _161
REMARK   62  A    between atoms: _161  and  _162
REMARK   63  A    between atoms: _161  and  _164
REMARK   64  A    between atoms: _164  and  _165
REMARK   65  A    between atoms: _168  and  _170
REMARK   66  A    between atoms: _170  and  _171
REMARK   67  A    between atoms: _170  and  _173
REMARK   68  A    between atoms: _173  and  _174
REMARK   69  A    between atoms: _174  and  _175
REMARK   70  A    between atoms: _177  and  _179
REMARK   71  A    between atoms: _179  and  _180
REMARK   72  A    between atoms: _179  and  _182
REMARK   73  A    between atoms: _182  and  _183
REMARK   74  A    between atoms: _183  and  _184
REMARK   75  A    between atoms: _186  and  _188
REMARK   76  A    between atoms: _188  and  _189
REMARK   77  A    between atoms: _188  and  _191
REMARK   78  A    between atoms: _191  and  _192
REMARK   79  A    between atoms: _197  and  _199
REMARK   80  A    between atoms: _199  and  _200
REMARK   81  A    between atoms: _199  and  _202
REMARK   82  A    between atoms: _204  and  _206
REMARK   83  A    between atoms: _206  and  _207
REMARK   84  A    between atoms: _206  and  _209
REMARK   85  A    between atoms: _209  and  _210
REMARK   86  A    between atoms: _215  and  _216
REMARK   87  A    between atoms: _218  and  _220
REMARK   88  A    between atoms: _220  and  _221
REMARK   89  A    between atoms: _220  and  _223
REMARK   90  A    between atoms: _223  and  _224
REMARK   91  A    between atoms: _227  and  _229
REMARK   92  A    between atoms: _229  and  _230
REMARK   93  A    between atoms: _229  and  _232
REMARK   94  A    between atoms: _232  and  _233
REMARK   95  A    between atoms: _238  and  _239
REMARK   96  A    between atoms: _241  and  _243
REMARK   97  A    between atoms: _243  and  _244
REMARK   98  A    between atoms: _243  and  _246
REMARK   99  A    between atoms: _246  and  _247
REMARK  100  A    between atoms: _252  and  _254
REMARK  101  A    between atoms: _254  and  _255
REMARK  102  A    between atoms: _254  and  _257
REMARK  103  A    between atoms: _257  and  _258
REMARK  104  A    between atoms: _258  and  _259
REMARK  105  A    between atoms: _259  and  _260
REMARK  106  A    between atoms: _260  and  _261
REMARK  107  A    between atoms: _265  and  _267
REMARK  108  A    between atoms: _267  and  _268
REMARK  109  A    between atoms: _267  and  _270
REMARK  110  A    between atoms: _270  and  _271
REMARK  111  A    between atoms: _274  and  _276
REMARK  112  A    between atoms: _276  and  _277
REMARK  113  A    between atoms: _276  and  _279
REMARK  114  A    between atoms: _279  and  _280
REMARK  115  A    between atoms: _283  and  _285
REMARK  116  A    between atoms: _285  and  _286
REMARK  117  A    between atoms: _285  and  _288
REMARK  118  A    between atoms: _291  and  _293
REMARK  119  A    between atoms: _293  and  _294
REMARK                            x       y       z     vdW  Elec       q    Type
REMARK                         _______ _______ _______ _____ _____    ______ ____
ROOT
ATOM      1  O   HOH     1      18.504  41.007  23.216  0.00  0.00    +0.000 OA
ENDROOT
TORSDOF 0
REMARK  Name = ../refined-set-2016/4mr3/4mr3_pocket.pdb
REMARK  119 active torsions:
REMARK  status: ('A' for Active; 'I' for Inactive)
REMARK    1  A    between atoms: _1  and  _3
REMARK    2  A    between atoms: _3  and  _4
REMARK    3  A    between atoms: _7  and  _9
REMARK    4  A    between atoms: _9  and  _10
REMARK    5  A    between atoms: _9  and  _12
REMARK    6  A    between atoms: _12  and  _13
REMARK    7  A    between atoms: _24  and  _25
REMARK    8  A    between atoms: _30  and  _32
REMARK    9  A    between atoms: _32  and  _33
REMARK   10  A    between atoms: _32  and  _35
REMARK   11  A    between atoms: _35  and  _36
REMARK   12  A    between atoms: _42  and  _44
REMARK   13  A    between atoms: _44  and  _45
REMARK   14  A    between atoms: _44  and  _47
REMARK   15  A    between atoms: _47  and  _48
REMARK   16  A    between atoms: _48  and  _49
REMARK   17  A    between atoms: _54  and  _56
REMARK   18  A    between atoms: _56  and  _57
REMARK   19  A    between atoms: _56  and  _59
REMARK   20  A    between atoms: _59  and  _60
REMARK   21  A    between atoms: _60  and  _61
REMARK   22  A    between atoms: _67  and  _68
REMARK   23  A    between atoms: _73  and  _75
REMARK   24  A    between atoms: _75  and  _76
REMARK   25  A    between atoms: _75  and  _78
REMARK   26  A    between atoms: _81  and  _83
REMARK   27  A    between atoms: _83  and  _84
REMARK   28  A    between atoms: _83  and  _86
REMARK   29  A    between atoms: _86  and  _87
REMARK   30  A    between atoms: _90  and  _92
REMARK   31  A    between atoms: _92  and  _93
REMARK   32  A    between atoms: _96  and  _98
REMARK   33  A    between atoms: _98  and  _99
REMARK   34  A    between atoms: _98  and  _101
REMARK   35  A    between atoms: _101  and  _102
REMARK   36  A    between atoms: _102  and  _103
REMARK   37  A    between atoms: _103  and  _104
REMARK   38  A    between atoms: _104  and  _105
REMARK   39  A    between atoms: _109  and  _111
REMARK   40  A    between atoms: _111  and  _112
REMARK   41  A    between atoms: _111  and  _114
REMARK   42  A    between atoms: _114  and  _115
REMARK   43  A    between atoms: _118  and  _120
REMARK   44  A    between atoms: _120  and  _121
REMARK   45  A    between atoms: _120  and  _123
REMARK   46  A    between atoms: _123  and  _124
REMARK   47  A    between atoms: _127  and  _129
REMARK   48  A    between atoms: _129  and  _130
REMARK   49  A    between atoms: _129  and  _132
REMARK   50  A    between atoms: _132  and  _133
REMARK   51  A    between atoms: _138  and  _139
REMARK   52  A    between atoms: _141  and  _143
REMARK   53  A    between atoms: _143  and  _144
REMARK   54  A    between atoms: _143  and  _146
REMARK   55  A    between atoms: _146  and  _147
REMARK   56  A    between atoms: _150  and  _152
REMARK   57  A    between atoms: _152  and  _153
REMARK   58  A    between atoms: _152  and  _155
REMARK   59  A    between atoms: _155  and  _156
REMARK   60  A    between atoms: _156  and  _157
REMARK   61  A    between atoms: _159  and  _161
REMARK   62  A    between atoms: _161  and  _162
REMARK   63  A    between atoms: _161  and  _164
REMARK   64  A    between atoms: _164  and  _165
REMARK   65  A    between atoms: _168  and  _170
REMARK   66  A    between atoms: _170  and  _171
REMARK   67  A    between atoms: _170  and  _173
REMARK   68  A    between atoms: _173  and  _174
REMARK   69  A    between atoms: _174  and  _175
REMARK   70  A    between atoms: _177  and  _179
REMARK   71  A    between atoms: _179  and  _180
REMARK   72  A    between atoms: _179  and  _182
REMARK   73  A    between atoms: _182  and  _183
REMARK   74  A    between atoms: _183  and  _184
REMARK   75  A    between atoms: _186  and  _188
REMARK   76  A    between atoms: _188  and  _189
REMARK   77  A    between atoms: _188  and  _191
REMARK   78  A    between atoms: _191  and  _192
REMARK   79  A    between atoms: _197  and  _199
REMARK   80  A    between atoms: _199  and  _200
REMARK   81  A    between atoms: _199  and  _202
REMARK   82  A    between atoms: _204  and  _206
REMARK   83  A    between atoms: _206  and  _207
REMARK   84  A    between atoms: _206  and  _209
REMARK   85  A    between atoms: _209  and  _210
REMARK   86  A    between atoms: _215  and  _216
REMARK   87  A    between atoms: _218  and  _220
REMARK   88  A    between atoms: _220  and  _221
REMARK   89  A    between atoms: _220  and  _223
REMARK   90  A    between atoms: _223  and  _224
REMARK   91  A    between atoms: _227  and  _229
REMARK   92  A    between atoms: _229  and  _230
REMARK   93  A    between atoms: _229  and  _232
REMARK   94  A    between atoms: _232  and  _233
REMARK   95  A    between atoms: _238  and  _239
REMARK   96  A    between atoms: _241  and  _243
REMARK   97  A    between atoms: _243  and  _244
REMARK   98  A    between atoms: _243  and  _246
REMARK   99  A    between atoms: _246  and  _247
REMARK  100  A    between atoms: _252  and  _254
REMARK  101  A    between atoms: _254  and  _255
REMARK  102  A    between atoms: _254  and  _257
REMARK  103  A    between atoms: _257  and  _258
REMARK  104  A    between atoms: _258  and  _259
REMARK  105  A    between atoms: _259  and  _260
REMARK  106  A    between atoms: _260  and  _261
REMARK  107  A    between atoms: _265  and  _267
REMARK  108  A    between atoms: _267  and  _268
REMARK  109  A    between atoms: _267  and  _270
REMARK  110  A    between atoms: _270  and  _271
REMARK  111  A    between atoms: _274  and  _276
REMARK  112  A    between atoms: _276  and  _277
REMARK  113  A    between atoms: _276  and  _279
REMARK  114  A    between atoms: _279  and  _280
REMARK  115  A    between atoms: _283  and  _285
REMARK  116  A    between atoms: _285  and  _286
REMARK  117  A    between atoms: _285  and  _288
REMARK  118  A    between atoms: _291  and  _293
REMARK  119  A    between atoms: _293  and  _294
REMARK                            x       y       z     vdW  Elec       q    Type
REMARK                         _______ _______ _______ _____ _____    ______ ____
ROOT
ATOM      1  O   HOH     1      21.845  46.149  22.498  0.00  0.00    +0.000 OA
ENDROOT
TORSDOF 0
REMARK  Name = ../refined-set-2016/4mr3/4mr3_pocket.pdb
REMARK  119 active torsions:
REMARK  status: ('A' for Active; 'I' for Inactive)
REMARK    1  A    between atoms: _1  and  _3
REMARK    2  A    between atoms: _3  and  _4
REMARK    3  A    between atoms: _7  and  _9
REMARK    4  A    between atoms: _9  and  _10
REMARK    5  A    between atoms: _9  and  _12
REMARK    6  A    between atoms: _12  and  _13
REMARK    7  A    between atoms: _24  and  _25
REMARK    8  A    between atoms: _30  and  _32
REMARK    9  A    between atoms: _32  and  _33
REMARK   10  A    between atoms: _32  and  _35
REMARK   11  A    between atoms: _35  and  _36
REMARK   12  A    between atoms: _42  and  _44
REMARK   13  A    between atoms: _44  and  _45
REMARK   14  A    between atoms: _44  and  _47
REMARK   15  A    between atoms: _47  and  _48
REMARK   16  A    between atoms: _48  and  _49
REMARK   17  A    between atoms: _54  and  _56
REMARK   18  A    between atoms: _56  and  _57
REMARK   19  A    between atoms: _56  and  _59
REMARK   20  A    between atoms: _59  and  _60
REMARK   21  A    between atoms: _60  and  _61
REMARK   22  A    between atoms: _67  and  _68
REMARK   23  A    between atoms: _73  and  _75
REMARK   24  A    between atoms: _75  and  _76
REMARK   25  A    between atoms: _75  and  _78
REMARK   26  A    between atoms: _81  and  _83
REMARK   27  A    between atoms: _83  and  _84
REMARK   28  A    between atoms: _83  and  _86
REMARK   29  A    between atoms: _86  and  _87
REMARK   30  A    between atoms: _90  and  _92
REMARK   31  A    between atoms: _92  and  _93
REMARK   32  A    between atoms: _96  and  _98
REMARK   33  A    between atoms: _98  and  _99
REMARK   34  A    between atoms: _98  and  _101
REMARK   35  A    between atoms: _101  and  _102
REMARK   36  A    between atoms: _102  and  _103
REMARK   37  A    between atoms: _103  and  _104
REMARK   38  A    between atoms: _104  and  _105
REMARK   39  A    between atoms: _109  and  _111
REMARK   40  A    between atoms: _111  and  _112
REMARK   41  A    between atoms: _111  and  _114
REMARK   42  A    between atoms: _114  and  _115
REMARK   43  A    between atoms: _118  and  _120
REMARK   44  A    between atoms: _120  and  _121
REMARK   45  A    between atoms: _120  and  _123
REMARK   46  A    between atoms: _123  and  _124
REMARK   47  A    between atoms: _127  and  _129
REMARK   48  A    between atoms: _129  and  _130
REMARK   49  A    between atoms: _129  and  _132
REMARK   50  A    between atoms: _132  and  _133
REMARK   51  A    between atoms: _138  and  _139
REMARK   52  A    between atoms: _141  and  _143
REMARK   53  A    between atoms: _143  and  _144
REMARK   54  A    between atoms: _143  and  _146
REMARK   55  A    between atoms: _146  and  _147
REMARK   56  A    between atoms: _150  and  _152
REMARK   57  A    between atoms: _152  and  _153
REMARK   58  A    between atoms: _152  and  _155
REMARK   59  A    between atoms: _155  and  _156
REMARK   60  A    between atoms: _156  and  _157
REMARK   61  A    between atoms: _159  and  _161
REMARK   62  A    between atoms: _161  and  _162
REMARK   63  A    between atoms: _161  and  _164
REMARK   64  A    between atoms: _164  and  _165
REMARK   65  A    between atoms: _168  and  _170
REMARK   66  A    between atoms: _170  and  _171
REMARK   67  A    between atoms: _170  and  _173
REMARK   68  A    between atoms: _173  and  _174
REMARK   69  A    between atoms: _174  and  _175
REMARK   70  A    between atoms: _177  and  _179
REMARK   71  A    between atoms: _179  and  _180
REMARK   72  A    between atoms: _179  and  _182
REMARK   73  A    between atoms: _182  and  _183
REMARK   74  A    between atoms: _183  and  _184
REMARK   75  A    between atoms: _186  and  _188
REMARK   76  A    between atoms: _188  and  _189
REMARK   77  A    between atoms: _188  and  _191
REMARK   78  A    between atoms: _191  and  _192
REMARK   79  A    between atoms: _197  and  _199
REMARK   80  A    between atoms: _199  and  _200
REMARK   81  A    between atoms: _199  and  _202
REMARK   82  A    between atoms: _204  and  _206
REMARK   83  A    between atoms: _206  and  _207
REMARK   84  A    between atoms: _206  and  _209
REMARK   85  A    between atoms: _209  and  _210
REMARK   86  A    between atoms: _215  and  _216
REMARK   87  A    between atoms: _218  and  _220
REMARK   88  A    between atoms: _220  and  _221
REMARK   89  A    between atoms: _220  and  _223
REMARK   90  A    between atoms: _223  and  _224
REMARK   91  A    between atoms: _227  and  _229
REMARK   92  A    between atoms: _229  and  _230
REMARK   93  A    between atoms: _229  and  _232
REMARK   94  A    between atoms: _232  and  _233
REMARK   95  A    between atoms: _238  and  _239
REMARK   96  A    between atoms: _241  and  _243
REMARK   97  A    between atoms: _243  and  _244
REMARK   98  A    between atoms: _243  and  _246
REMARK   99  A    between atoms: _246  and  _247
REMARK  100  A    between atoms: _252  and  _254
REMARK  101  A    between atoms: _254  and  _255
REMARK  102  A    between atoms: _254  and  _257
REMARK  103  A    between atoms: _257  and  _258
REMARK  104  A    between atoms: _258  and  _259
REMARK  105  A    between atoms: _259  and  _260
REMARK  106  A    between atoms: _260  and  _261
REMARK  107  A    between atoms: _265  and  _267
REMARK  108  A    between atoms: _267  and  _268
REMARK  109  A    between atoms: _267  and  _270
REMARK  110  A    between atoms: _270  and  _271
REMARK  111  A    between atoms: _274  and  _276
REMARK  112  A    between atoms: _276  and  _277
REMARK  113  A    between atoms: _276  and  _279
REMARK  114  A    between atoms: _279  and  _280
REMARK  115  A    between atoms: _283  and  _285
REMARK  116  A    between atoms: _285  and  _286
REMARK  117  A    between atoms: _285  and  _288
REMARK  118  A    between atoms: _291  and  _293
REMARK  119  A    between atoms: _293  and  _294
REMARK                            x       y       z     vdW  Elec       q    Type
REMARK                         _______ _______ _______ _____ _____    ______ ____
ROOT
ATOM      1  O   HOH     1      24.007  47.451  24.019  0.00  0.00    +0.000 OA
ENDROOT
TORSDOF 0
REMARK  Name = ../refined-set-2016/4mr3/4mr3_pocket.pdb
REMARK  119 active torsions:
REMARK  status: ('A' for Active; 'I' for Inactive)
REMARK    1  A    between atoms: _1  and  _3
REMARK    2  A    between atoms: _3  and  _4
REMARK    3  A    between atoms: _7  and  _9
REMARK    4  A    between atoms: _9  and  _10
REMARK    5  A    between atoms: _9  and  _12
REMARK    6  A    between atoms: _12  and  _13
REMARK    7  A    between atoms: _24  and  _25
REMARK    8  A    between atoms: _30  and  _32
REMARK    9  A    between atoms: _32  and  _33
REMARK   10  A    between atoms: _32  and  _35
REMARK   11  A    between atoms: _35  and  _36
REMARK   12  A    between atoms: _42  and  _44
REMARK   13  A    between atoms: _44  and  _45
REMARK   14  A    between atoms: _44  and  _47
REMARK   15  A    between atoms: _47  and  _48
REMARK   16  A    between atoms: _48  and  _49
REMARK   17  A    between atoms: _54  and  _56
REMARK   18  A    between atoms: _56  and  _57
REMARK   19  A    between atoms: _56  and  _59
REMARK   20  A    between atoms: _59  and  _60
REMARK   21  A    between atoms: _60  and  _61
REMARK   22  A    between atoms: _67  and  _68
REMARK   23  A    between atoms: _73  and  _75
REMARK   24  A    between atoms: _75  and  _76
REMARK   25  A    between atoms: _75  and  _78
REMARK   26  A    between atoms: _81  and  _83
REMARK   27  A    between atoms: _83  and  _84
REMARK   28  A    between atoms: _83  and  _86
REMARK   29  A    between atoms: _86  and  _87
REMARK   30  A    between atoms: _90  and  _92
REMARK   31  A    between atoms: _92  and  _93
REMARK   32  A    between atoms: _96  and  _98
REMARK   33  A    between atoms: _98  and  _99
REMARK   34  A    between atoms: _98  and  _101
REMARK   35  A    between atoms: _101  and  _102
REMARK   36  A    between atoms: _102  and  _103
REMARK   37  A    between atoms: _103  and  _104
REMARK   38  A    between atoms: _104  and  _105
REMARK   39  A    between atoms: _109  and  _111
REMARK   40  A    between atoms: _111  and  _112
REMARK   41  A    between atoms: _111  and  _114
REMARK   42  A    between atoms: _114  and  _115
REMARK   43  A    between atoms: _118  and  _120
REMARK   44  A    between atoms: _120  and  _121
REMARK   45  A    between atoms: _120  and  _123
REMARK   46  A    between atoms: _123  and  _124
REMARK   47  A    between atoms: _127  and  _129
REMARK   48  A    between atoms: _129  and  _130
REMARK   49  A    between atoms: _129  and  _132
REMARK   50  A    between atoms: _132  and  _133
REMARK   51  A    between atoms: _138  and  _139
REMARK   52  A    between atoms: _141  and  _143
REMARK   53  A    between atoms: _143  and  _144
REMARK   54  A    between atoms: _143  and  _146
REMARK   55  A    between atoms: _146  and  _147
REMARK   56  A    between atoms: _150  and  _152
REMARK   57  A    between atoms: _152  and  _153
REMARK   58  A    between atoms: _152  and  _155
REMARK   59  A    between atoms: _155  and  _156
REMARK   60  A    between atoms: _156  and  _157
REMARK   61  A    between atoms: _159  and  _161
REMARK   62  A    between atoms: _161  and  _162
REMARK   63  A    between atoms: _161  and  _164
REMARK   64  A    between atoms: _164  and  _165
REMARK   65  A    between atoms: _168  and  _170
REMARK   66  A    between atoms: _170  and  _171
REMARK   67  A    between atoms: _170  and  _173
REMARK   68  A    between atoms: _173  and  _174
REMARK   69  A    between atoms: _174  and  _175
REMARK   70  A    between atoms: _177  and  _179
REMARK   71  A    between atoms: _179  and  _180
REMARK   72  A    between atoms: _179  and  _182
REMARK   73  A    between atoms: _182  and  _183
REMARK   74  A    between atoms: _183  and  _184
REMARK   75  A    between atoms: _186  and  _188
REMARK   76  A    between atoms: _188  and  _189
REMARK   77  A    between atoms: _188  and  _191
REMARK   78  A    between atoms: _191  and  _192
REMARK   79  A    between atoms: _197  and  _199
REMARK   80  A    between atoms: _199  and  _200
REMARK   81  A    between atoms: _199  and  _202
REMARK   82  A    between atoms: _204  and  _206
REMARK   83  A    between atoms: _206  and  _207
REMARK   84  A    between atoms: _206  and  _209
REMARK   85  A    between atoms: _209  and  _210
REMARK   86  A    between atoms: _215  and  _216
REMARK   87  A    between atoms: _218  and  _220
REMARK   88  A    between atoms: _220  and  _221
REMARK   89  A    between atoms: _220  and  _223
REMARK   90  A    between atoms: _223  and  _224
REMARK   91  A    between atoms: _227  and  _229
REMARK   92  A    between atoms: _229  and  _230
REMARK   93  A    between atoms: _229  and  _232
REMARK   94  A    between atoms: _232  and  _233
REMARK   95  A    between atoms: _238  and  _239
REMARK   96  A    between atoms: _241  and  _243
REMARK   97  A    between atoms: _243  and  _244
REMARK   98  A    between atoms: _243  and  _246
REMARK   99  A    between atoms: _246  and  _247
REMARK  100  A    between atoms: _252  and  _254
REMARK  101  A    between atoms: _254  and  _255
REMARK  102  A    between atoms: _254  and  _257
REMARK  103  A    between atoms: _257  and  _258
REMARK  104  A    between atoms: _258  and  _259
REMARK  105  A    between atoms: _259  and  _260
REMARK  106  A    between atoms: _260  and  _261
REMARK  107  A    between atoms: _265  and  _267
REMARK  108  A    between atoms: _267  and  _268
REMARK  109  A    between atoms: _267  and  _270
REMARK  110  A    between atoms: _270  and  _271
REMARK  111  A    between atoms: _274  and  _276
REMARK  112  A    between atoms: _276  and  _277
REMARK  113  A    between atoms: _276  and  _279
REMARK  114  A    between atoms: _279  and  _280
REMARK  115  A    between atoms: _283  and  _285
REMARK  116  A    between atoms: _285  and  _286
REMARK  117  A    between atoms: _285  and  _288
REMARK  118  A    between atoms: _291  and  _293
REMARK  119  A    between atoms: _293  and  _294
REMARK                            x       y       z     vdW  Elec       q    Type
REMARK                         _______ _______ _______ _____ _____    ______ ____
ROOT
ATOM      1  O   HOH     1      19.951  34.185  18.380  0.00  0.00    +0.000 OA
ENDROOT
TORSDOF 0
REMARK  Name = ../refined-set-2016/4mr3/4mr3_pocket.pdb
REMARK  119 active torsions:
REMARK  status: ('A' for Active; 'I' for Inactive)
REMARK    1  A    between atoms: _1  and  _3
REMARK    2  A    between atoms: _3  and  _4
REMARK    3  A    between atoms: _7  and  _9
REMARK    4  A    between atoms: _9  and  _10
REMARK    5  A    between atoms: _9  and  _12
REMARK    6  A    between atoms: _12  and  _13
REMARK    7  A    between atoms: _24  and  _25
REMARK    8  A    between atoms: _30  and  _32
REMARK    9  A    between atoms: _32  and  _33
REMARK   10  A    between atoms: _32  and  _35
REMARK   11  A    between atoms: _35  and  _36
REMARK   12  A    between atoms: _42  and  _44
REMARK   13  A    between atoms: _44  and  _45
REMARK   14  A    between atoms: _44  and  _47
REMARK   15  A    between atoms: _47  and  _48
REMARK   16  A    between atoms: _48  and  _49
REMARK   17  A    between atoms: _54  and  _56
REMARK   18  A    between atoms: _56  and  _57
REMARK   19  A    between atoms: _56  and  _59
REMARK   20  A    between atoms: _59  and  _60
REMARK   21  A    between atoms: _60  and  _61
REMARK   22  A    between atoms: _67  and  _68
REMARK   23  A    between atoms: _73  and  _75
REMARK   24  A    between atoms: _75  and  _76
REMARK   25  A    between atoms: _75  and  _78
REMARK   26  A    between atoms: _81  and  _83
REMARK   27  A    between atoms: _83  and  _84
REMARK   28  A    between atoms: _83  and  _86
REMARK   29  A    between atoms: _86  and  _87
REMARK   30  A    between atoms: _90  and  _92
REMARK   31  A    between atoms: _92  and  _93
REMARK   32  A    between atoms: _96  and  _98
REMARK   33  A    between atoms: _98  and  _99
REMARK   34  A    between atoms: _98  and  _101
REMARK   35  A    between atoms: _101  and  _102
REMARK   36  A    between atoms: _102  and  _103
REMARK   37  A    between atoms: _103  and  _104
REMARK   38  A    between atoms: _104  and  _105
REMARK   39  A    between atoms: _109  and  _111
REMARK   40  A    between atoms: _111  and  _112
REMARK   41  A    between atoms: _111  and  _114
REMARK   42  A    between atoms: _114  and  _115
REMARK   43  A    between atoms: _118  and  _120
REMARK   44  A    between atoms: _120  and  _121
REMARK   45  A    between atoms: _120  and  _123
REMARK   46  A    between atoms: _123  and  _124
REMARK   47  A    between atoms: _127  and  _129
REMARK   48  A    between atoms: _129  and  _130
REMARK   49  A    between atoms: _129  and  _132
REMARK   50  A    between atoms: _132  and  _133
REMARK   51  A    between atoms: _138  and  _139
REMARK   52  A    between atoms: _141  and  _143
REMARK   53  A    between atoms: _143  and  _144
REMARK   54  A    between atoms: _143  and  _146
REMARK   55  A    between atoms: _146  and  _147
REMARK   56  A    between atoms: _150  and  _152
REMARK   57  A    between atoms: _152  and  _153
REMARK   58  A    between atoms: _152  and  _155
REMARK   59  A    between atoms: _155  and  _156
REMARK   60  A    between atoms: _156  and  _157
REMARK   61  A    between atoms: _159  and  _161
REMARK   62  A    between atoms: _161  and  _162
REMARK   63  A    between atoms: _161  and  _164
REMARK   64  A    between atoms: _164  and  _165
REMARK   65  A    between atoms: _168  and  _170
REMARK   66  A    between atoms: _170  and  _171
REMARK   67  A    between atoms: _170  and  _173
REMARK   68  A    between atoms: _173  and  _174
REMARK   69  A    between atoms: _174  and  _175
REMARK   70  A    between atoms: _177  and  _179
REMARK   71  A    between atoms: _179  and  _180
REMARK   72  A    between atoms: _179  and  _182
REMARK   73  A    between atoms: _182  and  _183
REMARK   74  A    between atoms: _183  and  _184
REMARK   75  A    between atoms: _186  and  _188
REMARK   76  A    between atoms: _188  and  _189
REMARK   77  A    between atoms: _188  and  _191
REMARK   78  A    between atoms: _191  and  _192
REMARK   79  A    between atoms: _197  and  _199
REMARK   80  A    between atoms: _199  and  _200
REMARK   81  A    between atoms: _199  and  _202
REMARK   82  A    between atoms: _204  and  _206
REMARK   83  A    between atoms: _206  and  _207
REMARK   84  A    between atoms: _206  and  _209
REMARK   85  A    between atoms: _209  and  _210
REMARK   86  A    between atoms: _215  and  _216
REMARK   87  A    between atoms: _218  and  _220
REMARK   88  A    between atoms: _220  and  _221
REMARK   89  A    between atoms: _220  and  _223
REMARK   90  A    between atoms: _223  and  _224
REMARK   91  A    between atoms: _227  and  _229
REMARK   92  A    between atoms: _229  and  _230
REMARK   93  A    between atoms: _229  and  _232
REMARK   94  A    between atoms: _232  and  _233
REMARK   95  A    between atoms: _238  and  _239
REMARK   96  A    between atoms: _241  and  _243
REMARK   97  A    between atoms: _243  and  _244
REMARK   98  A    between atoms: _243  and  _246
REMARK   99  A    between atoms: _246  and  _247
REMARK  100  A    between atoms: _252  and  _254
REMARK  101  A    between atoms: _254  and  _255
REMARK  102  A    between atoms: _254  and  _257
REMARK  103  A    between atoms: _257  and  _258
REMARK  104  A    between atoms: _258  and  _259
REMARK  105  A    between atoms: _259  and  _260
REMARK  106  A    between atoms: _260  and  _261
REMARK  107  A    between atoms: _265  and  _267
REMARK  108  A    between atoms: _267  and  _268
REMARK  109  A    between atoms: _267  and  _270
REMARK  110  A    between atoms: _270  and  _271
REMARK  111  A    between atoms: _274  and  _276
REMARK  112  A    between atoms: _276  and  _277
REMARK  113  A    between atoms: _276  and  _279
REMARK  114  A    between atoms: _279  and  _280
REMARK  115  A    between atoms: _283  and  _285
REMARK  116  A    between atoms: _285  and  _286
REMARK  117  A    between atoms: _285  and  _288
REMARK  118  A    between atoms: _291  and  _293
REMARK  119  A    between atoms: _293  and  _294
REMARK                            x       y       z     vdW  Elec       q    Type
REMARK                         _______ _______ _______ _____ _____    ______ ____
ROOT
ATOM      1  O   HOH     1      21.097  32.554  15.421  0.00  0.00    +0.000 OA
ENDROOT
TORSDOF 0
REMARK  Name = ../refined-set-2016/4mr3/4mr3_pocket.pdb
REMARK  119 active torsions:
REMARK  status: ('A' for Active; 'I' for Inactive)
REMARK    1  A    between atoms: _1  and  _3
REMARK    2  A    between atoms: _3  and  _4
REMARK    3  A    between atoms: _7  and  _9
REMARK    4  A    between atoms: _9  and  _10
REMARK    5  A    between atoms: _9  and  _12
REMARK    6  A    between atoms: _12  and  _13
REMARK    7  A    between atoms: _24  and  _25
REMARK    8  A    between atoms: _30  and  _32
REMARK    9  A    between atoms: _32  and  _33
REMARK   10  A    between atoms: _32  and  _35
REMARK   11  A    between atoms: _35  and  _36
REMARK   12  A    between atoms: _42  and  _44
REMARK   13  A    between atoms: _44  and  _45
REMARK   14  A    between atoms: _44  and  _47
REMARK   15  A    between atoms: _47  and  _48
REMARK   16  A    between atoms: _48  and  _49
REMARK   17  A    between atoms: _54  and  _56
REMARK   18  A    between atoms: _56  and  _57
REMARK   19  A    between atoms: _56  and  _59
REMARK   20  A    between atoms: _59  and  _60
REMARK   21  A    between atoms: _60  and  _61
REMARK   22  A    between atoms: _67  and  _68
REMARK   23  A    between atoms: _73  and  _75
REMARK   24  A    between atoms: _75  and  _76
REMARK   25  A    between atoms: _75  and  _78
REMARK   26  A    between atoms: _81  and  _83
REMARK   27  A    between atoms: _83  and  _84
REMARK   28  A    between atoms: _83  and  _86
REMARK   29  A    between atoms: _86  and  _87
REMARK   30  A    between atoms: _90  and  _92
REMARK   31  A    between atoms: _92  and  _93
REMARK   32  A    between atoms: _96  and  _98
REMARK   33  A    between atoms: _98  and  _99
REMARK   34  A    between atoms: _98  and  _101
REMARK   35  A    between atoms: _101  and  _102
REMARK   36  A    between atoms: _102  and  _103
REMARK   37  A    between atoms: _103  and  _104
REMARK   38  A    between atoms: _104  and  _105
REMARK   39  A    between atoms: _109  and  _111
REMARK   40  A    between atoms: _111  and  _112
REMARK   41  A    between atoms: _111  and  _114
REMARK   42  A    between atoms: _114  and  _115
REMARK   43  A    between atoms: _118  and  _120
REMARK   44  A    between atoms: _120  and  _121
REMARK   45  A    between atoms: _120  and  _123
REMARK   46  A    between atoms: _123  and  _124
REMARK   47  A    between atoms: _127  and  _129
REMARK   48  A    between atoms: _129  and  _130
REMARK   49  A    between atoms: _129  and  _132
REMARK   50  A    between atoms: _132  and  _133
REMARK   51  A    between atoms: _138  and  _139
REMARK   52  A    between atoms: _141  and  _143
REMARK   53  A    between atoms: _143  and  _144
REMARK   54  A    between atoms: _143  and  _146
REMARK   55  A    between atoms: _146  and  _147
REMARK   56  A    between atoms: _150  and  _152
REMARK   57  A    between atoms: _152  and  _153
REMARK   58  A    between atoms: _152  and  _155
REMARK   59  A    between atoms: _155  and  _156
REMARK   60  A    between atoms: _156  and  _157
REMARK   61  A    between atoms: _159  and  _161
REMARK   62  A    between atoms: _161  and  _162
REMARK   63  A    between atoms: _161  and  _164
REMARK   64  A    between atoms: _164  and  _165
REMARK   65  A    between atoms: _168  and  _170
REMARK   66  A    between atoms: _170  and  _171
REMARK   67  A    between atoms: _170  and  _173
REMARK   68  A    between atoms: _173  and  _174
REMARK   69  A    between atoms: _174  and  _175
REMARK   70  A    between atoms: _177  and  _179
REMARK   71  A    between atoms: _179  and  _180
REMARK   72  A    between atoms: _179  and  _182
REMARK   73  A    between atoms: _182  and  _183
REMARK   74  A    between atoms: _183  and  _184
REMARK   75  A    between atoms: _186  and  _188
REMARK   76  A    between atoms: _188  and  _189
REMARK   77  A    between atoms: _188  and  _191
REMARK   78  A    between atoms: _191  and  _192
REMARK   79  A    between atoms: _197  and  _199
REMARK   80  A    between atoms: _199  and  _200
REMARK   81  A    between atoms: _199  and  _202
REMARK   82  A    between atoms: _204  and  _206
REMARK   83  A    between atoms: _206  and  _207
REMARK   84  A    between atoms: _206  and  _209
REMARK   85  A    between atoms: _209  and  _210
REMARK   86  A    between atoms: _215  and  _216
REMARK   87  A    between atoms: _218  and  _220
REMARK   88  A    between atoms: _220  and  _221
REMARK   89  A    between atoms: _220  and  _223
REMARK   90  A    between atoms: _223  and  _224
REMARK   91  A    between atoms: _227  and  _229
REMARK   92  A    between atoms: _229  and  _230
REMARK   93  A    between atoms: _229  and  _232
REMARK   94  A    between atoms: _232  and  _233
REMARK   95  A    between atoms: _238  and  _239
REMARK   96  A    between atoms: _241  and  _243
REMARK   97  A    between atoms: _243  and  _244
REMARK   98  A    between atoms: _243  and  _246
REMARK   99  A    between atoms: _246  and  _247
REMARK  100  A    between atoms: _252  and  _254
REMARK  101  A    between atoms: _254  and  _255
REMARK  102  A    between atoms: _254  and  _257
REMARK  103  A    between atoms: _257  and  _258
REMARK  104  A    between atoms: _258  and  _259
REMARK  105  A    between atoms: _259  and  _260
REMARK  106  A    between atoms: _260  and  _261
REMARK  107  A    between atoms: _265  and  _267
REMARK  108  A    between atoms: _267  and  _268
REMARK  109  A    between atoms: _267  and  _270
REMARK  110  A    between atoms: _270  and  _271
REMARK  111  A    between atoms: _274  and  _276
REMARK  112  A    between atoms: _276  and  _277
REMARK  113  A    between atoms: _276  and  _279
REMARK  114  A    between atoms: _279  and  _280
REMARK  115  A    between atoms: _283  and  _285
REMARK  116  A    between atoms: _285  and  _286
REMARK  117  A    between atoms: _285  and  _288
REMARK  118  A    between atoms: _291  and  _293
REMARK  119  A    between atoms: _293  and  _294
REMARK                            x       y       z     vdW  Elec       q    Type
REMARK                         _______ _______ _______ _____ _____    ______ ____
ROOT
ATOM      1  O   HOH     1      21.414  29.619  16.222  0.00  0.00    +0.000 OA
ENDROOT
TORSDOF 0
REMARK  Name = ../refined-set-2016/4mr3/4mr3_pocket.pdb
REMARK  119 active torsions:
REMARK  status: ('A' for Active; 'I' for Inactive)
REMARK    1  A    between atoms: _1  and  _3
REMARK    2  A    between atoms: _3  and  _4
REMARK    3  A    between atoms: _7  and  _9
REMARK    4  A    between atoms: _9  and  _10
REMARK    5  A    between atoms: _9  and  _12
REMARK    6  A    between atoms: _12  and  _13
REMARK    7  A    between atoms: _24  and  _25
REMARK    8  A    between atoms: _30  and  _32
REMARK    9  A    between atoms: _32  and  _33
REMARK   10  A    between atoms: _32  and  _35
REMARK   11  A    between atoms: _35  and  _36
REMARK   12  A    between atoms: _42  and  _44
REMARK   13  A    between atoms: _44  and  _45
REMARK   14  A    between atoms: _44  and  _47
REMARK   15  A    between atoms: _47  and  _48
REMARK   16  A    between atoms: _48  and  _49
REMARK   17  A    between atoms: _54  and  _56
REMARK   18  A    between atoms: _56  and  _57
REMARK   19  A    between atoms: _56  and  _59
REMARK   20  A    between atoms: _59  and  _60
REMARK   21  A    between atoms: _60  and  _61
REMARK   22  A    between atoms: _67  and  _68
REMARK   23  A    between atoms: _73  and  _75
REMARK   24  A    between atoms: _75  and  _76
REMARK   25  A    between atoms: _75  and  _78
REMARK   26  A    between atoms: _81  and  _83
REMARK   27  A    between atoms: _83  and  _84
REMARK   28  A    between atoms: _83  and  _86
REMARK   29  A    between atoms: _86  and  _87
REMARK   30  A    between atoms: _90  and  _92
REMARK   31  A    between atoms: _92  and  _93
REMARK   32  A    between atoms: _96  and  _98
REMARK   33  A    between atoms: _98  and  _99
REMARK   34  A    between atoms: _98  and  _101
REMARK   35  A    between atoms: _101  and  _102
REMARK   36  A    between atoms: _102  and  _103
REMARK   37  A    between atoms: _103  and  _104
REMARK   38  A    between atoms: _104  and  _105
REMARK   39  A    between atoms: _109  and  _111
REMARK   40  A    between atoms: _111  and  _112
REMARK   41  A    between atoms: _111  and  _114
REMARK   42  A    between atoms: _114  and  _115
REMARK   43  A    between atoms: _118  and  _120
REMARK   44  A    between atoms: _120  and  _121
REMARK   45  A    between atoms: _120  and  _123
REMARK   46  A    between atoms: _123  and  _124
REMARK   47  A    between atoms: _127  and  _129
REMARK   48  A    between atoms: _129  and  _130
REMARK   49  A    between atoms: _129  and  _132
REMARK   50  A    between atoms: _132  and  _133
REMARK   51  A    between atoms: _138  and  _139
REMARK   52  A    between atoms: _141  and  _143
REMARK   53  A    between atoms: _143  and  _144
REMARK   54  A    between atoms: _143  and  _146
REMARK   55  A    between atoms: _146  and  _147
REMARK   56  A    between atoms: _150  and  _152
REMARK   57  A    between atoms: _152  and  _153
REMARK   58  A    between atoms: _152  and  _155
REMARK   59  A    between atoms: _155  and  _156
REMARK   60  A    between atoms: _156  and  _157
REMARK   61  A    between atoms: _159  and  _161
REMARK   62  A    between atoms: _161  and  _162
REMARK   63  A    between atoms: _161  and  _164
REMARK   64  A    between atoms: _164  and  _165
REMARK   65  A    between atoms: _168  and  _170
REMARK   66  A    between atoms: _170  and  _171
REMARK   67  A    between atoms: _170  and  _173
REMARK   68  A    between atoms: _173  and  _174
REMARK   69  A    between atoms: _174  and  _175
REMARK   70  A    between atoms: _177  and  _179
REMARK   71  A    between atoms: _179  and  _180
REMARK   72  A    between atoms: _179  and  _182
REMARK   73  A    between atoms: _182  and  _183
REMARK   74  A    between atoms: _183  and  _184
REMARK   75  A    between atoms: _186  and  _188
REMARK   76  A    between atoms: _188  and  _189
REMARK   77  A    between atoms: _188  and  _191
REMARK   78  A    between atoms: _191  and  _192
REMARK   79  A    between atoms: _197  and  _199
REMARK   80  A    between atoms: _199  and  _200
REMARK   81  A    between atoms: _199  and  _202
REMARK   82  A    between atoms: _204  and  _206
REMARK   83  A    between atoms: _206  and  _207
REMARK   84  A    between atoms: _206  and  _209
REMARK   85  A    between atoms: _209  and  _210
REMARK   86  A    between atoms: _215  and  _216
REMARK   87  A    between atoms: _218  and  _220
REMARK   88  A    between atoms: _220  and  _221
REMARK   89  A    between atoms: _220  and  _223
REMARK   90  A    between atoms: _223  and  _224
REMARK   91  A    between atoms: _227  and  _229
REMARK   92  A    between atoms: _229  and  _230
REMARK   93  A    between atoms: _229  and  _232
REMARK   94  A    between atoms: _232  and  _233
REMARK   95  A    between atoms: _238  and  _239
REMARK   96  A    between atoms: _241  and  _243
REMARK   97  A    between atoms: _243  and  _244
REMARK   98  A    between atoms: _243  and  _246
REMARK   99  A    between atoms: _246  and  _247
REMARK  100  A    between atoms: _252  and  _254
REMARK  101  A    between atoms: _254  and  _255
REMARK  102  A    between atoms: _254  and  _257
REMARK  103  A    between atoms: _257  and  _258
REMARK  104  A    between atoms: _258  and  _259
REMARK  105  A    between atoms: _259  and  _260
REMARK  106  A    between atoms: _260  and  _261
REMARK  107  A    between atoms: _265  and  _267
REMARK  108  A    between atoms: _267  and  _268
REMARK  109  A    between atoms: _267  and  _270
REMARK  110  A    between atoms: _270  and  _271
REMARK  111  A    between atoms: _274  and  _276
REMARK  112  A    between atoms: _276  and  _277
REMARK  113  A    between atoms: _276  and  _279
REMARK  114  A    between atoms: _279  and  _280
REMARK  115  A    between atoms: _283  and  _285
REMARK  116  A    between atoms: _285  and  _286
REMARK  117  A    between atoms: _285  and  _288
REMARK  118  A    between atoms: _291  and  _293
REMARK  119  A    between atoms: _293  and  _294
REMARK                            x       y       z     vdW  Elec       q    Type
REMARK                         _______ _______ _______ _____ _____    ______ ____
ROOT
ATOM      1  O   HOH     1      18.554  32.970  15.756  0.00  0.00    +0.000 OA
ENDROOT
TORSDOF 0
REMARK  Name = ../refined-set-2016/4mr3/4mr3_pocket.pdb
REMARK  119 active torsions:
REMARK  status: ('A' for Active; 'I' for Inactive)
REMARK    1  A    between atoms: _1  and  _3
REMARK    2  A    between atoms: _3  and  _4
REMARK    3  A    between atoms: _7  and  _9
REMARK    4  A    between atoms: _9  and  _10
REMARK    5  A    between atoms: _9  and  _12
REMARK    6  A    between atoms: _12  and  _13
REMARK    7  A    between atoms: _24  and  _25
REMARK    8  A    between atoms: _30  and  _32
REMARK    9  A    between atoms: _32  and  _33
REMARK   10  A    between atoms: _32  and  _35
REMARK   11  A    between atoms: _35  and  _36
REMARK   12  A    between atoms: _42  and  _44
REMARK   13  A    between atoms: _44  and  _45
REMARK   14  A    between atoms: _44  and  _47
REMARK   15  A    between atoms: _47  and  _48
REMARK   16  A    between atoms: _48  and  _49
REMARK   17  A    between atoms: _54  and  _56
REMARK   18  A    between atoms: _56  and  _57
REMARK   19  A    between atoms: _56  and  _59
REMARK   20  A    between atoms: _59  and  _60
REMARK   21  A    between atoms: _60  and  _61
REMARK   22  A    between atoms: _67  and  _68
REMARK   23  A    between atoms: _73  and  _75
REMARK   24  A    between atoms: _75  and  _76
REMARK   25  A    between atoms: _75  and  _78
REMARK   26  A    between atoms: _81  and  _83
REMARK   27  A    between atoms: _83  and  _84
REMARK   28  A    between atoms: _83  and  _86
REMARK   29  A    between atoms: _86  and  _87
REMARK   30  A    between atoms: _90  and  _92
REMARK   31  A    between atoms: _92  and  _93
REMARK   32  A    between atoms: _96  and  _98
REMARK   33  A    between atoms: _98  and  _99
REMARK   34  A    between atoms: _98  and  _101
REMARK   35  A    between atoms: _101  and  _102
REMARK   36  A    between atoms: _102  and  _103
REMARK   37  A    between atoms: _103  and  _104
REMARK   38  A    between atoms: _104  and  _105
REMARK   39  A    between atoms: _109  and  _111
REMARK   40  A    between atoms: _111  and  _112
REMARK   41  A    between atoms: _111  and  _114
REMARK   42  A    between atoms: _114  and  _115
REMARK   43  A    between atoms: _118  and  _120
REMARK   44  A    between atoms: _120  and  _121
REMARK   45  A    between atoms: _120  and  _123
REMARK   46  A    between atoms: _123  and  _124
REMARK   47  A    between atoms: _127  and  _129
REMARK   48  A    between atoms: _129  and  _130
REMARK   49  A    between atoms: _129  and  _132
REMARK   50  A    between atoms: _132  and  _133
REMARK   51  A    between atoms: _138  and  _139
REMARK   52  A    between atoms: _141  and  _143
REMARK   53  A    between atoms: _143  and  _144
REMARK   54  A    between atoms: _143  and  _146
REMARK   55  A    between atoms: _146  and  _147
REMARK   56  A    between atoms: _150  and  _152
REMARK   57  A    between atoms: _152  and  _153
REMARK   58  A    between atoms: _152  and  _155
REMARK   59  A    between atoms: _155  and  _156
REMARK   60  A    between atoms: _156  and  _157
REMARK   61  A    between atoms: _159  and  _161
REMARK   62  A    between atoms: _161  and  _162
REMARK   63  A    between atoms: _161  and  _164
REMARK   64  A    between atoms: _164  and  _165
REMARK   65  A    between atoms: _168  and  _170
REMARK   66  A    between atoms: _170  and  _171
REMARK   67  A    between atoms: _170  and  _173
REMARK   68  A    between atoms: _173  and  _174
REMARK   69  A    between atoms: _174  and  _175
REMARK   70  A    between atoms: _177  and  _179
REMARK   71  A    between atoms: _179  and  _180
REMARK   72  A    between atoms: _179  and  _182
REMARK   73  A    between atoms: _182  and  _183
REMARK   74  A    between atoms: _183  and  _184
REMARK   75  A    between atoms: _186  and  _188
REMARK   76  A    between atoms: _188  and  _189
REMARK   77  A    between atoms: _188  and  _191
REMARK   78  A    between atoms: _191  and  _192
REMARK   79  A    between atoms: _197  and  _199
REMARK   80  A    between atoms: _199  and  _200
REMARK   81  A    between atoms: _199  and  _202
REMARK   82  A    between atoms: _204  and  _206
REMARK   83  A    between atoms: _206  and  _207
REMARK   84  A    between atoms: _206  and  _209
REMARK   85  A    between atoms: _209  and  _210
REMARK   86  A    between atoms: _215  and  _216
REMARK   87  A    between atoms: _218  and  _220
REMARK   88  A    between atoms: _220  and  _221
REMARK   89  A    between atoms: _220  and  _223
REMARK   90  A    between atoms: _223  and  _224
REMARK   91  A    between atoms: _227  and  _229
REMARK   92  A    between atoms: _229  and  _230
REMARK   93  A    between atoms: _229  and  _232
REMARK   94  A    between atoms: _232  and  _233
REMARK   95  A    between atoms: _238  and  _239
REMARK   96  A    between atoms: _241  and  _243
REMARK   97  A    between atoms: _243  and  _244
REMARK   98  A    between atoms: _243  and  _246
REMARK   99  A    between atoms: _246  and  _247
REMARK  100  A    between atoms: _252  and  _254
REMARK  101  A    between atoms: _254  and  _255
REMARK  102  A    between atoms: _254  and  _257
REMARK  103  A    between atoms: _257  and  _258
REMARK  104  A    between atoms: _258  and  _259
REMARK  105  A    between atoms: _259  and  _260
REMARK  106  A    between atoms: _260  and  _261
REMARK  107  A    between atoms: _265  and  _267
REMARK  108  A    between atoms: _267  and  _268
REMARK  109  A    between atoms: _267  and  _270
REMARK  110  A    between atoms: _270  and  _271
REMARK  111  A    between atoms: _274  and  _276
REMARK  112  A    between atoms: _276  and  _277
REMARK  113  A    between atoms: _276  and  _279
REMARK  114  A    between atoms: _279  and  _280
REMARK  115  A    between atoms: _283  and  _285
REMARK  116  A    between atoms: _285  and  _286
REMARK  117  A    between atoms: _285  and  _288
REMARK  118  A    between atoms: _291  and  _293
REMARK  119  A    between atoms: _293  and  _294
REMARK                            x       y       z     vdW  Elec       q    Type
REMARK                         _______ _______ _______ _____ _____    ______ ____
ROOT
ATOM      1  O   HOH     1      19.776  27.760  13.933  0.00  0.00    +0.000 OA
ENDROOT
TORSDOF 0
REMARK  Name = ../refined-set-2016/4mr3/4mr3_pocket.pdb
REMARK  119 active torsions:
REMARK  status: ('A' for Active; 'I' for Inactive)
REMARK    1  A    between atoms: _1  and  _3
REMARK    2  A    between atoms: _3  and  _4
REMARK    3  A    between atoms: _7  and  _9
REMARK    4  A    between atoms: _9  and  _10
REMARK    5  A    between atoms: _9  and  _12
REMARK    6  A    between atoms: _12  and  _13
REMARK    7  A    between atoms: _24  and  _25
REMARK    8  A    between atoms: _30  and  _32
REMARK    9  A    between atoms: _32  and  _33
REMARK   10  A    between atoms: _32  and  _35
REMARK   11  A    between atoms: _35  and  _36
REMARK   12  A    between atoms: _42  and  _44
REMARK   13  A    between atoms: _44  and  _45
REMARK   14  A    between atoms: _44  and  _47
REMARK   15  A    between atoms: _47  and  _48
REMARK   16  A    between atoms: _48  and  _49
REMARK   17  A    between atoms: _54  and  _56
REMARK   18  A    between atoms: _56  and  _57
REMARK   19  A    between atoms: _56  and  _59
REMARK   20  A    between atoms: _59  and  _60
REMARK   21  A    between atoms: _60  and  _61
REMARK   22  A    between atoms: _67  and  _68
REMARK   23  A    between atoms: _73  and  _75
REMARK   24  A    between atoms: _75  and  _76
REMARK   25  A    between atoms: _75  and  _78
REMARK   26  A    between atoms: _81  and  _83
REMARK   27  A    between atoms: _83  and  _84
REMARK   28  A    between atoms: _83  and  _86
REMARK   29  A    between atoms: _86  and  _87
REMARK   30  A    between atoms: _90  and  _92
REMARK   31  A    between atoms: _92  and  _93
REMARK   32  A    between atoms: _96  and  _98
REMARK   33  A    between atoms: _98  and  _99
REMARK   34  A    between atoms: _98  and  _101
REMARK   35  A    between atoms: _101  and  _102
REMARK   36  A    between atoms: _102  and  _103
REMARK   37  A    between atoms: _103  and  _104
REMARK   38  A    between atoms: _104  and  _105
REMARK   39  A    between atoms: _109  and  _111
REMARK   40  A    between atoms: _111  and  _112
REMARK   41  A    between atoms: _111  and  _114
REMARK   42  A    between atoms: _114  and  _115
REMARK   43  A    between atoms: _118  and  _120
REMARK   44  A    between atoms: _120  and  _121
REMARK   45  A    between atoms: _120  and  _123
REMARK   46  A    between atoms: _123  and  _124
REMARK   47  A    between atoms: _127  and  _129
REMARK   48  A    between atoms: _129  and  _130
REMARK   49  A    between atoms: _129  and  _132
REMARK   50  A    between atoms: _132  and  _133
REMARK   51  A    between atoms: _138  and  _139
REMARK   52  A    between atoms: _141  and  _143
REMARK   53  A    between atoms: _143  and  _144
REMARK   54  A    between atoms: _143  and  _146
REMARK   55  A    between atoms: _146  and  _147
REMARK   56  A    between atoms: _150  and  _152
REMARK   57  A    between atoms: _152  and  _153
REMARK   58  A    between atoms: _152  and  _155
REMARK   59  A    between atoms: _155  and  _156
REMARK   60  A    between atoms: _156  and  _157
REMARK   61  A    between atoms: _159  and  _161
REMARK   62  A    between atoms: _161  and  _162
REMARK   63  A    between atoms: _161  and  _164
REMARK   64  A    between atoms: _164  and  _165
REMARK   65  A    between atoms: _168  and  _170
REMARK   66  A    between atoms: _170  and  _171
REMARK   67  A    between atoms: _170  and  _173
REMARK   68  A    between atoms: _173  and  _174
REMARK   69  A    between atoms: _174  and  _175
REMARK   70  A    between atoms: _177  and  _179
REMARK   71  A    between atoms: _179  and  _180
REMARK   72  A    between atoms: _179  and  _182
REMARK   73  A    between atoms: _182  and  _183
REMARK   74  A    between atoms: _183  and  _184
REMARK   75  A    between atoms: _186  and  _188
REMARK   76  A    between atoms: _188  and  _189
REMARK   77  A    between atoms: _188  and  _191
REMARK   78  A    between atoms: _191  and  _192
REMARK   79  A    between atoms: _197  and  _199
REMARK   80  A    between atoms: _199  and  _200
REMARK   81  A    between atoms: _199  and  _202
REMARK   82  A    between atoms: _204  and  _206
REMARK   83  A    between atoms: _206  and  _207
REMARK   84  A    between atoms: _206  and  _209
REMARK   85  A    between atoms: _209  and  _210
REMARK   86  A    between atoms: _215  and  _216
REMARK   87  A    between atoms: _218  and  _220
REMARK   88  A    between atoms: _220  and  _221
REMARK   89  A    between atoms: _220  and  _223
REMARK   90  A    between atoms: _223  and  _224
REMARK   91  A    between atoms: _227  and  _229
REMARK   92  A    between atoms: _229  and  _230
REMARK   93  A    between atoms: _229  and  _232
REMARK   94  A    between atoms: _232  and  _233
REMARK   95  A    between atoms: _238  and  _239
REMARK   96  A    between atoms: _241  and  _243
REMARK   97  A    between atoms: _243  and  _244
REMARK   98  A    between atoms: _243  and  _246
REMARK   99  A    between atoms: _246  and  _247
REMARK  100  A    between atoms: _252  and  _254
REMARK  101  A    between atoms: _254  and  _255
REMARK  102  A    between atoms: _254  and  _257
REMARK  103  A    between atoms: _257  and  _258
REMARK  104  A    between atoms: _258  and  _259
REMARK  105  A    between atoms: _259  and  _260
REMARK  106  A    between atoms: _260  and  _261
REMARK  107  A    between atoms: _265  and  _267
REMARK  108  A    between atoms: _267  and  _268
REMARK  109  A    between atoms: _267  and  _270
REMARK  110  A    between atoms: _270  and  _271
REMARK  111  A    between atoms: _274  and  _276
REMARK  112  A    between atoms: _276  and  _277
REMARK  113  A    between atoms: _276  and  _279
REMARK  114  A    between atoms: _279  and  _280
REMARK  115  A    between atoms: _283  and  _285
REMARK  116  A    between atoms: _285  and  _286
REMARK  117  A    between atoms: _285  and  _288
REMARK  118  A    between atoms: _291  and  _293
REMARK  119  A    between atoms: _293  and  _294
REMARK                            x       y       z     vdW  Elec       q    Type
REMARK                         _______ _______ _______ _____ _____    ______ ____
ROOT
ATOM      1  O   HOH     1      14.495  38.027  22.284  0.00  0.00    +0.000 OA
ENDROOT
TORSDOF 0
REMARK  Name = ../refined-set-2016/4mr3/4mr3_pocket.pdb
REMARK  119 active torsions:
REMARK  status: ('A' for Active; 'I' for Inactive)
REMARK    1  A    between atoms: _1  and  _3
REMARK    2  A    between atoms: _3  and  _4
REMARK    3  A    between atoms: _7  and  _9
REMARK    4  A    between atoms: _9  and  _10
REMARK    5  A    between atoms: _9  and  _12
REMARK    6  A    between atoms: _12  and  _13
REMARK    7  A    between atoms: _24  and  _25
REMARK    8  A    between atoms: _30  and  _32
REMARK    9  A    between atoms: _32  and  _33
REMARK   10  A    between atoms: _32  and  _35
REMARK   11  A    between atoms: _35  and  _36
REMARK   12  A    between atoms: _42  and  _44
REMARK   13  A    between atoms: _44  and  _45
REMARK   14  A    between atoms: _44  and  _47
REMARK   15  A    between atoms: _47  and  _48
REMARK   16  A    between atoms: _48  and  _49
REMARK   17  A    between atoms: _54  and  _56
REMARK   18  A    between atoms: _56  and  _57
REMARK   19  A    between atoms: _56  and  _59
REMARK   20  A    between atoms: _59  and  _60
REMARK   21  A    between atoms: _60  and  _61
REMARK   22  A    between atoms: _67  and  _68
REMARK   23  A    between atoms: _73  and  _75
REMARK   24  A    between atoms: _75  and  _76
REMARK   25  A    between atoms: _75  and  _78
REMARK   26  A    between atoms: _81  and  _83
REMARK   27  A    between atoms: _83  and  _84
REMARK   28  A    between atoms: _83  and  _86
REMARK   29  A    between atoms: _86  and  _87
REMARK   30  A    between atoms: _90  and  _92
REMARK   31  A    between atoms: _92  and  _93
REMARK   32  A    between atoms: _96  and  _98
REMARK   33  A    between atoms: _98  and  _99
REMARK   34  A    between atoms: _98  and  _101
REMARK   35  A    between atoms: _101  and  _102
REMARK   36  A    between atoms: _102  and  _103
REMARK   37  A    between atoms: _103  and  _104
REMARK   38  A    between atoms: _104  and  _105
REMARK   39  A    between atoms: _109  and  _111
REMARK   40  A    between atoms: _111  and  _112
REMARK   41  A    between atoms: _111  and  _114
REMARK   42  A    between atoms: _114  and  _115
REMARK   43  A    between atoms: _118  and  _120
REMARK   44  A    between atoms: _120  and  _121
REMARK   45  A    between atoms: _120  and  _123
REMARK   46  A    between atoms: _123  and  _124
REMARK   47  A    between atoms: _127  and  _129
REMARK   48  A    between atoms: _129  and  _130
REMARK   49  A    between atoms: _129  and  _132
REMARK   50  A    between atoms: _132  and  _133
REMARK   51  A    between atoms: _138  and  _139
REMARK   52  A    between atoms: _141  and  _143
REMARK   53  A    between atoms: _143  and  _144
REMARK   54  A    between atoms: _143  and  _146
REMARK   55  A    between atoms: _146  and  _147
REMARK   56  A    between atoms: _150  and  _152
REMARK   57  A    between atoms: _152  and  _153
REMARK   58  A    between atoms: _152  and  _155
REMARK   59  A    between atoms: _155  and  _156
REMARK   60  A    between atoms: _156  and  _157
REMARK   61  A    between atoms: _159  and  _161
REMARK   62  A    between atoms: _161  and  _162
REMARK   63  A    between atoms: _161  and  _164
REMARK   64  A    between atoms: _164  and  _165
REMARK   65  A    between atoms: _168  and  _170
REMARK   66  A    between atoms: _170  and  _171
REMARK   67  A    between atoms: _170  and  _173
REMARK   68  A    between atoms: _173  and  _174
REMARK   69  A    between atoms: _174  and  _175
REMARK   70  A    between atoms: _177  and  _179
REMARK   71  A    between atoms: _179  and  _180
REMARK   72  A    between atoms: _179  and  _182
REMARK   73  A    between atoms: _182  and  _183
REMARK   74  A    between atoms: _183  and  _184
REMARK   75  A    between atoms: _186  and  _188
REMARK   76  A    between atoms: _188  and  _189
REMARK   77  A    between atoms: _188  and  _191
REMARK   78  A    between atoms: _191  and  _192
REMARK   79  A    between atoms: _197  and  _199
REMARK   80  A    between atoms: _199  and  _200
REMARK   81  A    between atoms: _199  and  _202
REMARK   82  A    between atoms: _204  and  _206
REMARK   83  A    between atoms: _206  and  _207
REMARK   84  A    between atoms: _206  and  _209
REMARK   85  A    between atoms: _209  and  _210
REMARK   86  A    between atoms: _215  and  _216
REMARK   87  A    between atoms: _218  and  _220
REMARK   88  A    between atoms: _220  and  _221
REMARK   89  A    between atoms: _220  and  _223
REMARK   90  A    between atoms: _223  and  _224
REMARK   91  A    between atoms: _227  and  _229
REMARK   92  A    between atoms: _229  and  _230
REMARK   93  A    between atoms: _229  and  _232
REMARK   94  A    between atoms: _232  and  _233
REMARK   95  A    between atoms: _238  and  _239
REMARK   96  A    between atoms: _241  and  _243
REMARK   97  A    between atoms: _243  and  _244
REMARK   98  A    between atoms: _243  and  _246
REMARK   99  A    between atoms: _246  and  _247
REMARK  100  A    between atoms: _252  and  _254
REMARK  101  A    between atoms: _254  and  _255
REMARK  102  A    between atoms: _254  and  _257
REMARK  103  A    between atoms: _257  and  _258
REMARK  104  A    between atoms: _258  and  _259
REMARK  105  A    between atoms: _259  and  _260
REMARK  106  A    between atoms: _260  and  _261
REMARK  107  A    between atoms: _265  and  _267
REMARK  108  A    between atoms: _267  and  _268
REMARK  109  A    between atoms: _267  and  _270
REMARK  110  A    between atoms: _270  and  _271
REMARK  111  A    between atoms: _274  and  _276
REMARK  112  A    between atoms: _276  and  _277
REMARK  113  A    between atoms: _276  and  _279
REMARK  114  A    between atoms: _279  and  _280
REMARK  115  A    between atoms: _283  and  _285
REMARK  116  A    between atoms: _285  and  _286
REMARK  117  A    between atoms: _285  and  _288
REMARK  118  A    between atoms: _291  and  _293
REMARK  119  A    between atoms: _293  and  _294
REMARK                            x       y       z     vdW  Elec       q    Type
REMARK                         _______ _______ _______ _____ _____    ______ ____
ROOT
ATOM      1  O   HOH     1      14.182  35.433  22.408  0.00  0.00    +0.000 OA
ENDROOT
TORSDOF 0
REMARK  Name = ../refined-set-2016/4mr3/4mr3_pocket.pdb
REMARK  119 active torsions:
REMARK  status: ('A' for Active; 'I' for Inactive)
REMARK    1  A    between atoms: _1  and  _3
REMARK    2  A    between atoms: _3  and  _4
REMARK    3  A    between atoms: _7  and  _9
REMARK    4  A    between atoms: _9  and  _10
REMARK    5  A    between atoms: _9  and  _12
REMARK    6  A    between atoms: _12  and  _13
REMARK    7  A    between atoms: _24  and  _25
REMARK    8  A    between atoms: _30  and  _32
REMARK    9  A    between atoms: _32  and  _33
REMARK   10  A    between atoms: _32  and  _35
REMARK   11  A    between atoms: _35  and  _36
REMARK   12  A    between atoms: _42  and  _44
REMARK   13  A    between atoms: _44  and  _45
REMARK   14  A    between atoms: _44  and  _47
REMARK   15  A    between atoms: _47  and  _48
REMARK   16  A    between atoms: _48  and  _49
REMARK   17  A    between atoms: _54  and  _56
REMARK   18  A    between atoms: _56  and  _57
REMARK   19  A    between atoms: _56  and  _59
REMARK   20  A    between atoms: _59  and  _60
REMARK   21  A    between atoms: _60  and  _61
REMARK   22  A    between atoms: _67  and  _68
REMARK   23  A    between atoms: _73  and  _75
REMARK   24  A    between atoms: _75  and  _76
REMARK   25  A    between atoms: _75  and  _78
REMARK   26  A    between atoms: _81  and  _83
REMARK   27  A    between atoms: _83  and  _84
REMARK   28  A    between atoms: _83  and  _86
REMARK   29  A    between atoms: _86  and  _87
REMARK   30  A    between atoms: _90  and  _92
REMARK   31  A    between atoms: _92  and  _93
REMARK   32  A    between atoms: _96  and  _98
REMARK   33  A    between atoms: _98  and  _99
REMARK   34  A    between atoms: _98  and  _101
REMARK   35  A    between atoms: _101  and  _102
REMARK   36  A    between atoms: _102  and  _103
REMARK   37  A    between atoms: _103  and  _104
REMARK   38  A    between atoms: _104  and  _105
REMARK   39  A    between atoms: _109  and  _111
REMARK   40  A    between atoms: _111  and  _112
REMARK   41  A    between atoms: _111  and  _114
REMARK   42  A    between atoms: _114  and  _115
REMARK   43  A    between atoms: _118  and  _120
REMARK   44  A    between atoms: _120  and  _121
REMARK   45  A    between atoms: _120  and  _123
REMARK   46  A    between atoms: _123  and  _124
REMARK   47  A    between atoms: _127  and  _129
REMARK   48  A    between atoms: _129  and  _130
REMARK   49  A    between atoms: _129  and  _132
REMARK   50  A    between atoms: _132  and  _133
REMARK   51  A    between atoms: _138  and  _139
REMARK   52  A    between atoms: _141  and  _143
REMARK   53  A    between atoms: _143  and  _144
REMARK   54  A    between atoms: _143  and  _146
REMARK   55  A    between atoms: _146  and  _147
REMARK   56  A    between atoms: _150  and  _152
REMARK   57  A    between atoms: _152  and  _153
REMARK   58  A    between atoms: _152  and  _155
REMARK   59  A    between atoms: _155  and  _156
REMARK   60  A    between atoms: _156  and  _157
REMARK   61  A    between atoms: _159  and  _161
REMARK   62  A    between atoms: _161  and  _162
REMARK   63  A    between atoms: _161  and  _164
REMARK   64  A    between atoms: _164  and  _165
REMARK   65  A    between atoms: _168  and  _170
REMARK   66  A    between atoms: _170  and  _171
REMARK   67  A    between atoms: _170  and  _173
REMARK   68  A    between atoms: _173  and  _174
REMARK   69  A    between atoms: _174  and  _175
REMARK   70  A    between atoms: _177  and  _179
REMARK   71  A    between atoms: _179  and  _180
REMARK   72  A    between atoms: _179  and  _182
REMARK   73  A    between atoms: _182  and  _183
REMARK   74  A    between atoms: _183  and  _184
REMARK   75  A    between atoms: _186  and  _188
REMARK   76  A    between atoms: _188  and  _189
REMARK   77  A    between atoms: _188  and  _191
REMARK   78  A    between atoms: _191  and  _192
REMARK   79  A    between atoms: _197  and  _199
REMARK   80  A    between atoms: _199  and  _200
REMARK   81  A    between atoms: _199  and  _202
REMARK   82  A    between atoms: _204  and  _206
REMARK   83  A    between atoms: _206  and  _207
REMARK   84  A    between atoms: _206  and  _209
REMARK   85  A    between atoms: _209  and  _210
REMARK   86  A    between atoms: _215  and  _216
REMARK   87  A    between atoms: _218  and  _220
REMARK   88  A    between atoms: _220  and  _221
REMARK   89  A    between atoms: _220  and  _223
REMARK   90  A    between atoms: _223  and  _224
REMARK   91  A    between atoms: _227  and  _229
REMARK   92  A    between atoms: _229  and  _230
REMARK   93  A    between atoms: _229  and  _232
REMARK   94  A    between atoms: _232  and  _233
REMARK   95  A    between atoms: _238  and  _239
REMARK   96  A    between atoms: _241  and  _243
REMARK   97  A    between atoms: _243  and  _244
REMARK   98  A    between atoms: _243  and  _246
REMARK   99  A    between atoms: _246  and  _247
REMARK  100  A    between atoms: _252  and  _254
REMARK  101  A    between atoms: _254  and  _255
REMARK  102  A    between atoms: _254  and  _257
REMARK  103  A    between atoms: _257  and  _258
REMARK  104  A    between atoms: _258  and  _259
REMARK  105  A    between atoms: _259  and  _260
REMARK  106  A    between atoms: _260  and  _261
REMARK  107  A    between atoms: _265  and  _267
REMARK  108  A    between atoms: _267  and  _268
REMARK  109  A    between atoms: _267  and  _270
REMARK  110  A    between atoms: _270  and  _271
REMARK  111  A    between atoms: _274  and  _276
REMARK  112  A    between atoms: _276  and  _277
REMARK  113  A    between atoms: _276  and  _279
REMARK  114  A    between atoms: _279  and  _280
REMARK  115  A    between atoms: _283  and  _285
REMARK  116  A    between atoms: _285  and  _286
REMARK  117  A    between atoms: _285  and  _288
REMARK  118  A    between atoms: _291  and  _293
REMARK  119  A    between atoms: _293  and  _294
REMARK                            x       y       z     vdW  Elec       q    Type
REMARK                         _______ _______ _______ _____ _____    ______ ____
ROOT
ATOM      1  O   HOH     1      17.052  34.932  22.770  0.00  0.00    +0.000 OA
ENDROOT
TORSDOF 0
REMARK  Name = ../refined-set-2016/4mr3/4mr3_pocket.pdb
REMARK  119 active torsions:
REMARK  status: ('A' for Active; 'I' for Inactive)
REMARK    1  A    between atoms: _1  and  _3
REMARK    2  A    between atoms: _3  and  _4
REMARK    3  A    between atoms: _7  and  _9
REMARK    4  A    between atoms: _9  and  _10
REMARK    5  A    between atoms: _9  and  _12
REMARK    6  A    between atoms: _12  and  _13
REMARK    7  A    between atoms: _24  and  _25
REMARK    8  A    between atoms: _30  and  _32
REMARK    9  A    between atoms: _32  and  _33
REMARK   10  A    between atoms: _32  and  _35
REMARK   11  A    between atoms: _35  and  _36
REMARK   12  A    between atoms: _42  and  _44
REMARK   13  A    between atoms: _44  and  _45
REMARK   14  A    between atoms: _44  and  _47
REMARK   15  A    between atoms: _47  and  _48
REMARK   16  A    between atoms: _48  and  _49
REMARK   17  A    between atoms: _54  and  _56
REMARK   18  A    between atoms: _56  and  _57
REMARK   19  A    between atoms: _56  and  _59
REMARK   20  A    between atoms: _59  and  _60
REMARK   21  A    between atoms: _60  and  _61
REMARK   22  A    between atoms: _67  and  _68
REMARK   23  A    between atoms: _73  and  _75
REMARK   24  A    between atoms: _75  and  _76
REMARK   25  A    between atoms: _75  and  _78
REMARK   26  A    between atoms: _81  and  _83
REMARK   27  A    between atoms: _83  and  _84
REMARK   28  A    between atoms: _83  and  _86
REMARK   29  A    between atoms: _86  and  _87
REMARK   30  A    between atoms: _90  and  _92
REMARK   31  A    between atoms: _92  and  _93
REMARK   32  A    between atoms: _96  and  _98
REMARK   33  A    between atoms: _98  and  _99
REMARK   34  A    between atoms: _98  and  _101
REMARK   35  A    between atoms: _101  and  _102
REMARK   36  A    between atoms: _102  and  _103
REMARK   37  A    between atoms: _103  and  _104
REMARK   38  A    between atoms: _104  and  _105
REMARK   39  A    between atoms: _109  and  _111
REMARK   40  A    between atoms: _111  and  _112
REMARK   41  A    between atoms: _111  and  _114
REMARK   42  A    between atoms: _114  and  _115
REMARK   43  A    between atoms: _118  and  _120
REMARK   44  A    between atoms: _120  and  _121
REMARK   45  A    between atoms: _120  and  _123
REMARK   46  A    between atoms: _123  and  _124
REMARK   47  A    between atoms: _127  and  _129
REMARK   48  A    between atoms: _129  and  _130
REMARK   49  A    between atoms: _129  and  _132
REMARK   50  A    between atoms: _132  and  _133
REMARK   51  A    between atoms: _138  and  _139
REMARK   52  A    between atoms: _141  and  _143
REMARK   53  A    between atoms: _143  and  _144
REMARK   54  A    between atoms: _143  and  _146
REMARK   55  A    between atoms: _146  and  _147
REMARK   56  A    between atoms: _150  and  _152
REMARK   57  A    between atoms: _152  and  _153
REMARK   58  A    between atoms: _152  and  _155
REMARK   59  A    between atoms: _155  and  _156
REMARK   60  A    between atoms: _156  and  _157
REMARK   61  A    between atoms: _159  and  _161
REMARK   62  A    between atoms: _161  and  _162
REMARK   63  A    between atoms: _161  and  _164
REMARK   64  A    between atoms: _164  and  _165
REMARK   65  A    between atoms: _168  and  _170
REMARK   66  A    between atoms: _170  and  _171
REMARK   67  A    between atoms: _170  and  _173
REMARK   68  A    between atoms: _173  and  _174
REMARK   69  A    between atoms: _174  and  _175
REMARK   70  A    between atoms: _177  and  _179
REMARK   71  A    between atoms: _179  and  _180
REMARK   72  A    between atoms: _179  and  _182
REMARK   73  A    between atoms: _182  and  _183
REMARK   74  A    between atoms: _183  and  _184
REMARK   75  A    between atoms: _186  and  _188
REMARK   76  A    between atoms: _188  and  _189
REMARK   77  A    between atoms: _188  and  _191
REMARK   78  A    between atoms: _191  and  _192
REMARK   79  A    between atoms: _197  and  _199
REMARK   80  A    between atoms: _199  and  _200
REMARK   81  A    between atoms: _199  and  _202
REMARK   82  A    between atoms: _204  and  _206
REMARK   83  A    between atoms: _206  and  _207
REMARK   84  A    between atoms: _206  and  _209
REMARK   85  A    between atoms: _209  and  _210
REMARK   86  A    between atoms: _215  and  _216
REMARK   87  A    between atoms: _218  and  _220
REMARK   88  A    between atoms: _220  and  _221
REMARK   89  A    between atoms: _220  and  _223
REMARK   90  A    between atoms: _223  and  _224
REMARK   91  A    between atoms: _227  and  _229
REMARK   92  A    between atoms: _229  and  _230
REMARK   93  A    between atoms: _229  and  _232
REMARK   94  A    between atoms: _232  and  _233
REMARK   95  A    between atoms: _238  and  _239
REMARK   96  A    between atoms: _241  and  _243
REMARK   97  A    between atoms: _243  and  _244
REMARK   98  A    between atoms: _243  and  _246
REMARK   99  A    between atoms: _246  and  _247
REMARK  100  A    between atoms: _252  and  _254
REMARK  101  A    between atoms: _254  and  _255
REMARK  102  A    between atoms: _254  and  _257
REMARK  103  A    between atoms: _257  and  _258
REMARK  104  A    between atoms: _258  and  _259
REMARK  105  A    between atoms: _259  and  _260
REMARK  106  A    between atoms: _260  and  _261
REMARK  107  A    between atoms: _265  and  _267
REMARK  108  A    between atoms: _267  and  _268
REMARK  109  A    between atoms: _267  and  _270
REMARK  110  A    between atoms: _270  and  _271
REMARK  111  A    between atoms: _274  and  _276
REMARK  112  A    between atoms: _276  and  _277
REMARK  113  A    between atoms: _276  and  _279
REMARK  114  A    between atoms: _279  and  _280
REMARK  115  A    between atoms: _283  and  _285
REMARK  116  A    between atoms: _285  and  _286
REMARK  117  A    between atoms: _285  and  _288
REMARK  118  A    between atoms: _291  and  _293
REMARK  119  A    between atoms: _293  and  _294
REMARK                            x       y       z     vdW  Elec       q    Type
REMARK                         _______ _______ _______ _____ _____    ______ ____
ROOT
ATOM      1  O   HOH     1      25.842  45.682  25.155  0.00  0.00    +0.000 OA
ENDROOT
TORSDOF 0
REMARK  Name = ../refined-set-2016/4mr3/4mr3_pocket.pdb
REMARK  119 active torsions:
REMARK  status: ('A' for Active; 'I' for Inactive)
REMARK    1  A    between atoms: _1  and  _3
REMARK    2  A    between atoms: _3  and  _4
REMARK    3  A    between atoms: _7  and  _9
REMARK    4  A    between atoms: _9  and  _10
REMARK    5  A    between atoms: _9  and  _12
REMARK    6  A    between atoms: _12  and  _13
REMARK    7  A    between atoms: _24  and  _25
REMARK    8  A    between atoms: _30  and  _32
REMARK    9  A    between atoms: _32  and  _33
REMARK   10  A    between atoms: _32  and  _35
REMARK   11  A    between atoms: _35  and  _36
REMARK   12  A    between atoms: _42  and  _44
REMARK   13  A    between atoms: _44  and  _45
REMARK   14  A    between atoms: _44  and  _47
REMARK   15  A    between atoms: _47  and  _48
REMARK   16  A    between atoms: _48  and  _49
REMARK   17  A    between atoms: _54  and  _56
REMARK   18  A    between atoms: _56  and  _57
REMARK   19  A    between atoms: _56  and  _59
REMARK   20  A    between atoms: _59  and  _60
REMARK   21  A    between atoms: _60  and  _61
REMARK   22  A    between atoms: _67  and  _68
REMARK   23  A    between atoms: _73  and  _75
REMARK   24  A    between atoms: _75  and  _76
REMARK   25  A    between atoms: _75  and  _78
REMARK   26  A    between atoms: _81  and  _83
REMARK   27  A    between atoms: _83  and  _84
REMARK   28  A    between atoms: _83  and  _86
REMARK   29  A    between atoms: _86  and  _87
REMARK   30  A    between atoms: _90  and  _92
REMARK   31  A    between atoms: _92  and  _93
REMARK   32  A    between atoms: _96  and  _98
REMARK   33  A    between atoms: _98  and  _99
REMARK   34  A    between atoms: _98  and  _101
REMARK   35  A    between atoms: _101  and  _102
REMARK   36  A    between atoms: _102  and  _103
REMARK   37  A    between atoms: _103  and  _104
REMARK   38  A    between atoms: _104  and  _105
REMARK   39  A    between atoms: _109  and  _111
REMARK   40  A    between atoms: _111  and  _112
REMARK   41  A    between atoms: _111  and  _114
REMARK   42  A    between atoms: _114  and  _115
REMARK   43  A    between atoms: _118  and  _120
REMARK   44  A    between atoms: _120  and  _121
REMARK   45  A    between atoms: _120  and  _123
REMARK   46  A    between atoms: _123  and  _124
REMARK   47  A    between atoms: _127  and  _129
REMARK   48  A    between atoms: _129  and  _130
REMARK   49  A    between atoms: _129  and  _132
REMARK   50  A    between atoms: _132  and  _133
REMARK   51  A    between atoms: _138  and  _139
REMARK   52  A    between atoms: _141  and  _143
REMARK   53  A    between atoms: _143  and  _144
REMARK   54  A    between atoms: _143  and  _146
REMARK   55  A    between atoms: _146  and  _147
REMARK   56  A    between atoms: _150  and  _152
REMARK   57  A    between atoms: _152  and  _153
REMARK   58  A    between atoms: _152  and  _155
REMARK   59  A    between atoms: _155  and  _156
REMARK   60  A    between atoms: _156  and  _157
REMARK   61  A    between atoms: _159  and  _161
REMARK   62  A    between atoms: _161  and  _162
REMARK   63  A    between atoms: _161  and  _164
REMARK   64  A    between atoms: _164  and  _165
REMARK   65  A    between atoms: _168  and  _170
REMARK   66  A    between atoms: _170  and  _171
REMARK   67  A    between atoms: _170  and  _173
REMARK   68  A    between atoms: _173  and  _174
REMARK   69  A    between atoms: _174  and  _175
REMARK   70  A    between atoms: _177  and  _179
REMARK   71  A    between atoms: _179  and  _180
REMARK   72  A    between atoms: _179  and  _182
REMARK   73  A    between atoms: _182  and  _183
REMARK   74  A    between atoms: _183  and  _184
REMARK   75  A    between atoms: _186  and  _188
REMARK   76  A    between atoms: _188  and  _189
REMARK   77  A    between atoms: _188  and  _191
REMARK   78  A    between atoms: _191  and  _192
REMARK   79  A    between atoms: _197  and  _199
REMARK   80  A    between atoms: _199  and  _200
REMARK   81  A    between atoms: _199  and  _202
REMARK   82  A    between atoms: _204  and  _206
REMARK   83  A    between atoms: _206  and  _207
REMARK   84  A    between atoms: _206  and  _209
REMARK   85  A    between atoms: _209  and  _210
REMARK   86  A    between atoms: _215  and  _216
REMARK   87  A    between atoms: _218  and  _220
REMARK   88  A    between atoms: _220  and  _221
REMARK   89  A    between atoms: _220  and  _223
REMARK   90  A    between atoms: _223  and  _224
REMARK   91  A    between atoms: _227  and  _229
REMARK   92  A    between atoms: _229  and  _230
REMARK   93  A    between atoms: _229  and  _232
REMARK   94  A    between atoms: _232  and  _233
REMARK   95  A    between atoms: _238  and  _239
REMARK   96  A    between atoms: _241  and  _243
REMARK   97  A    between atoms: _243  and  _244
REMARK   98  A    between atoms: _243  and  _246
REMARK   99  A    between atoms: _246  and  _247
REMARK  100  A    between atoms: _252  and  _254
REMARK  101  A    between atoms: _254  and  _255
REMARK  102  A    between atoms: _254  and  _257
REMARK  103  A    between atoms: _257  and  _258
REMARK  104  A    between atoms: _258  and  _259
REMARK  105  A    between atoms: _259  and  _260
REMARK  106  A    between atoms: _260  and  _261
REMARK  107  A    between atoms: _265  and  _267
REMARK  108  A    between atoms: _267  and  _268
REMARK  109  A    between atoms: _267  and  _270
REMARK  110  A    between atoms: _270  and  _271
REMARK  111  A    between atoms: _274  and  _276
REMARK  112  A    between atoms: _276  and  _277
REMARK  113  A    between atoms: _276  and  _279
REMARK  114  A    between atoms: _279  and  _280
REMARK  115  A    between atoms: _283  and  _285
REMARK  116  A    between atoms: _285  and  _286
REMARK  117  A    between atoms: _285  and  _288
REMARK  118  A    between atoms: _291  and  _293
REMARK  119  A    between atoms: _293  and  _294
REMARK                            x       y       z     vdW  Elec       q    Type
REMARK                         _______ _______ _______ _____ _____    ______ ____
ROOT
ATOM      1  O   HOH     1      22.198  43.494  23.601  0.00  0.00    +0.000 OA
ENDROOT
TORSDOF 0
REMARK  Name = ../refined-set-2016/4mr3/4mr3_pocket.pdb
REMARK  119 active torsions:
REMARK  status: ('A' for Active; 'I' for Inactive)
REMARK    1  A    between atoms: _1  and  _3
REMARK    2  A    between atoms: _3  and  _4
REMARK    3  A    between atoms: _7  and  _9
REMARK    4  A    between atoms: _9  and  _10
REMARK    5  A    between atoms: _9  and  _12
REMARK    6  A    between atoms: _12  and  _13
REMARK    7  A    between atoms: _24  and  _25
REMARK    8  A    between atoms: _30  and  _32
REMARK    9  A    between atoms: _32  and  _33
REMARK   10  A    between atoms: _32  and  _35
REMARK   11  A    between atoms: _35  and  _36
REMARK   12  A    between atoms: _42  and  _44
REMARK   13  A    between atoms: _44  and  _45
REMARK   14  A    between atoms: _44  and  _47
REMARK   15  A    between atoms: _47  and  _48
REMARK   16  A    between atoms: _48  and  _49
REMARK   17  A    between atoms: _54  and  _56
REMARK   18  A    between atoms: _56  and  _57
REMARK   19  A    between atoms: _56  and  _59
REMARK   20  A    between atoms: _59  and  _60
REMARK   21  A    between atoms: _60  and  _61
REMARK   22  A    between atoms: _67  and  _68
REMARK   23  A    between atoms: _73  and  _75
REMARK   24  A    between atoms: _75  and  _76
REMARK   25  A    between atoms: _75  and  _78
REMARK   26  A    between atoms: _81  and  _83
REMARK   27  A    between atoms: _83  and  _84
REMARK   28  A    between atoms: _83  and  _86
REMARK   29  A    between atoms: _86  and  _87
REMARK   30  A    between atoms: _90  and  _92
REMARK   31  A    between atoms: _92  and  _93
REMARK   32  A    between atoms: _96  and  _98
REMARK   33  A    between atoms: _98  and  _99
REMARK   34  A    between atoms: _98  and  _101
REMARK   35  A    between atoms: _101  and  _102
REMARK   36  A    between atoms: _102  and  _103
REMARK   37  A    between atoms: _103  and  _104
REMARK   38  A    between atoms: _104  and  _105
REMARK   39  A    between atoms: _109  and  _111
REMARK   40  A    between atoms: _111  and  _112
REMARK   41  A    between atoms: _111  and  _114
REMARK   42  A    between atoms: _114  and  _115
REMARK   43  A    between atoms: _118  and  _120
REMARK   44  A    between atoms: _120  and  _121
REMARK   45  A    between atoms: _120  and  _123
REMARK   46  A    between atoms: _123  and  _124
REMARK   47  A    between atoms: _127  and  _129
REMARK   48  A    between atoms: _129  and  _130
REMARK   49  A    between atoms: _129  and  _132
REMARK   50  A    between atoms: _132  and  _133
REMARK   51  A    between atoms: _138  and  _139
REMARK   52  A    between atoms: _141  and  _143
REMARK   53  A    between atoms: _143  and  _144
REMARK   54  A    between atoms: _143  and  _146
REMARK   55  A    between atoms: _146  and  _147
REMARK   56  A    between atoms: _150  and  _152
REMARK   57  A    between atoms: _152  and  _153
REMARK   58  A    between atoms: _152  and  _155
REMARK   59  A    between atoms: _155  and  _156
REMARK   60  A    between atoms: _156  and  _157
REMARK   61  A    between atoms: _159  and  _161
REMARK   62  A    between atoms: _161  and  _162
REMARK   63  A    between atoms: _161  and  _164
REMARK   64  A    between atoms: _164  and  _165
REMARK   65  A    between atoms: _168  and  _170
REMARK   66  A    between atoms: _170  and  _171
REMARK   67  A    between atoms: _170  and  _173
REMARK   68  A    between atoms: _173  and  _174
REMARK   69  A    between atoms: _174  and  _175
REMARK   70  A    between atoms: _177  and  _179
REMARK   71  A    between atoms: _179  and  _180
REMARK   72  A    between atoms: _179  and  _182
REMARK   73  A    between atoms: _182  and  _183
REMARK   74  A    between atoms: _183  and  _184
REMARK   75  A    between atoms: _186  and  _188
REMARK   76  A    between atoms: _188  and  _189
REMARK   77  A    between atoms: _188  and  _191
REMARK   78  A    between atoms: _191  and  _192
REMARK   79  A    between atoms: _197  and  _199
REMARK   80  A    between atoms: _199  and  _200
REMARK   81  A    between atoms: _199  and  _202
REMARK   82  A    between atoms: _204  and  _206
REMARK   83  A    between atoms: _206  and  _207
REMARK   84  A    between atoms: _206  and  _209
REMARK   85  A    between atoms: _209  and  _210
REMARK   86  A    between atoms: _215  and  _216
REMARK   87  A    between atoms: _218  and  _220
REMARK   88  A    between atoms: _220  and  _221
REMARK   89  A    between atoms: _220  and  _223
REMARK   90  A    between atoms: _223  and  _224
REMARK   91  A    between atoms: _227  and  _229
REMARK   92  A    between atoms: _229  and  _230
REMARK   93  A    between atoms: _229  and  _232
REMARK   94  A    between atoms: _232  and  _233
REMARK   95  A    between atoms: _238  and  _239
REMARK   96  A    between atoms: _241  and  _243
REMARK   97  A    between atoms: _243  and  _244
REMARK   98  A    between atoms: _243  and  _246
REMARK   99  A    between atoms: _246  and  _247
REMARK  100  A    between atoms: _252  and  _254
REMARK  101  A    between atoms: _254  and  _255
REMARK  102  A    between atoms: _254  and  _257
REMARK  103  A    between atoms: _257  and  _258
REMARK  104  A    between atoms: _258  and  _259
REMARK  105  A    between atoms: _259  and  _260
REMARK  106  A    between atoms: _260  and  _261
REMARK  107  A    between atoms: _265  and  _267
REMARK  108  A    between atoms: _267  and  _268
REMARK  109  A    between atoms: _267  and  _270
REMARK  110  A    between atoms: _270  and  _271
REMARK  111  A    between atoms: _274  and  _276
REMARK  112  A    between atoms: _276  and  _277
REMARK  113  A    between atoms: _276  and  _279
REMARK  114  A    between atoms: _279  and  _280
REMARK  115  A    between atoms: _283  and  _285
REMARK  116  A    between atoms: _285  and  _286
REMARK  117  A    between atoms: _285  and  _288
REMARK  118  A    between atoms: _291  and  _293
REMARK  119  A    between atoms: _293  and  _294
REMARK                            x       y       z     vdW  Elec       q    Type
REMARK                         _______ _______ _______ _____ _____    ______ ____
ROOT
ATOM      1  O   HOH     1      18.728  36.677  24.627  0.00  0.00    +0.000 OA
ENDROOT
TORSDOF 0
REMARK  Name = ../refined-set-2016/4mr3/4mr3_pocket.pdb
REMARK  119 active torsions:
REMARK  status: ('A' for Active; 'I' for Inactive)
REMARK    1  A    between atoms: _1  and  _3
REMARK    2  A    between atoms: _3  and  _4
REMARK    3  A    between atoms: _7  and  _9
REMARK    4  A    between atoms: _9  and  _10
REMARK    5  A    between atoms: _9  and  _12
REMARK    6  A    between atoms: _12  and  _13
REMARK    7  A    between atoms: _24  and  _25
REMARK    8  A    between atoms: _30  and  _32
REMARK    9  A    between atoms: _32  and  _33
REMARK   10  A    between atoms: _32  and  _35
REMARK   11  A    between atoms: _35  and  _36
REMARK   12  A    between atoms: _42  and  _44
REMARK   13  A    between atoms: _44  and  _45
REMARK   14  A    between atoms: _44  and  _47
REMARK   15  A    between atoms: _47  and  _48
REMARK   16  A    between atoms: _48  and  _49
REMARK   17  A    between atoms: _54  and  _56
REMARK   18  A    between atoms: _56  and  _57
REMARK   19  A    between atoms: _56  and  _59
REMARK   20  A    between atoms: _59  and  _60
REMARK   21  A    between atoms: _60  and  _61
REMARK   22  A    between atoms: _67  and  _68
REMARK   23  A    between atoms: _73  and  _75
REMARK   24  A    between atoms: _75  and  _76
REMARK   25  A    between atoms: _75  and  _78
REMARK   26  A    between atoms: _81  and  _83
REMARK   27  A    between atoms: _83  and  _84
REMARK   28  A    between atoms: _83  and  _86
REMARK   29  A    between atoms: _86  and  _87
REMARK   30  A    between atoms: _90  and  _92
REMARK   31  A    between atoms: _92  and  _93
REMARK   32  A    between atoms: _96  and  _98
REMARK   33  A    between atoms: _98  and  _99
REMARK   34  A    between atoms: _98  and  _101
REMARK   35  A    between atoms: _101  and  _102
REMARK   36  A    between atoms: _102  and  _103
REMARK   37  A    between atoms: _103  and  _104
REMARK   38  A    between atoms: _104  and  _105
REMARK   39  A    between atoms: _109  and  _111
REMARK   40  A    between atoms: _111  and  _112
REMARK   41  A    between atoms: _111  and  _114
REMARK   42  A    between atoms: _114  and  _115
REMARK   43  A    between atoms: _118  and  _120
REMARK   44  A    between atoms: _120  and  _121
REMARK   45  A    between atoms: _120  and  _123
REMARK   46  A    between atoms: _123  and  _124
REMARK   47  A    between atoms: _127  and  _129
REMARK   48  A    between atoms: _129  and  _130
REMARK   49  A    between atoms: _129  and  _132
REMARK   50  A    between atoms: _132  and  _133
REMARK   51  A    between atoms: _138  and  _139
REMARK   52  A    between atoms: _141  and  _143
REMARK   53  A    between atoms: _143  and  _144
REMARK   54  A    between atoms: _143  and  _146
REMARK   55  A    between atoms: _146  and  _147
REMARK   56  A    between atoms: _150  and  _152
REMARK   57  A    between atoms: _152  and  _153
REMARK   58  A    between atoms: _152  and  _155
REMARK   59  A    between atoms: _155  and  _156
REMARK   60  A    between atoms: _156  and  _157
REMARK   61  A    between atoms: _159  and  _161
REMARK   62  A    between atoms: _161  and  _162
REMARK   63  A    between atoms: _161  and  _164
REMARK   64  A    between atoms: _164  and  _165
REMARK   65  A    between atoms: _168  and  _170
REMARK   66  A    between atoms: _170  and  _171
REMARK   67  A    between atoms: _170  and  _173
REMARK   68  A    between atoms: _173  and  _174
REMARK   69  A    between atoms: _174  and  _175
REMARK   70  A    between atoms: _177  and  _179
REMARK   71  A    between atoms: _179  and  _180
REMARK   72  A    between atoms: _179  and  _182
REMARK   73  A    between atoms: _182  and  _183
REMARK   74  A    between atoms: _183  and  _184
REMARK   75  A    between atoms: _186  and  _188
REMARK   76  A    between atoms: _188  and  _189
REMARK   77  A    between atoms: _188  and  _191
REMARK   78  A    between atoms: _191  and  _192
REMARK   79  A    between atoms: _197  and  _199
REMARK   80  A    between atoms: _199  and  _200
REMARK   81  A    between atoms: _199  and  _202
REMARK   82  A    between atoms: _204  and  _206
REMARK   83  A    between atoms: _206  and  _207
REMARK   84  A    between atoms: _206  and  _209
REMARK   85  A    between atoms: _209  and  _210
REMARK   86  A    between atoms: _215  and  _216
REMARK   87  A    between atoms: _218  and  _220
REMARK   88  A    between atoms: _220  and  _221
REMARK   89  A    between atoms: _220  and  _223
REMARK   90  A    between atoms: _223  and  _224
REMARK   91  A    between atoms: _227  and  _229
REMARK   92  A    between atoms: _229  and  _230
REMARK   93  A    between atoms: _229  and  _232
REMARK   94  A    between atoms: _232  and  _233
REMARK   95  A    between atoms: _238  and  _239
REMARK   96  A    between atoms: _241  and  _243
REMARK   97  A    between atoms: _243  and  _244
REMARK   98  A    between atoms: _243  and  _246
REMARK   99  A    between atoms: _246  and  _247
REMARK  100  A    between atoms: _252  and  _254
REMARK  101  A    between atoms: _254  and  _255
REMARK  102  A    between atoms: _254  and  _257
REMARK  103  A    between atoms: _257  and  _258
REMARK  104  A    between atoms: _258  and  _259
REMARK  105  A    between atoms: _259  and  _260
REMARK  106  A    between atoms: _260  and  _261
REMARK  107  A    between atoms: _265  and  _267
REMARK  108  A    between atoms: _267  and  _268
REMARK  109  A    between atoms: _267  and  _270
REMARK  110  A    between atoms: _270  and  _271
REMARK  111  A    between atoms: _274  and  _276
REMARK  112  A    between atoms: _276  and  _277
REMARK  113  A    between atoms: _276  and  _279
REMARK  114  A    between atoms: _279  and  _280
REMARK  115  A    between atoms: _283  and  _285
REMARK  116  A    between atoms: _285  and  _286
REMARK  117  A    between atoms: _285  and  _288
REMARK  118  A    between atoms: _291  and  _293
REMARK  119  A    between atoms: _293  and  _294
REMARK                            x       y       z     vdW  Elec       q    Type
REMARK                         _______ _______ _______ _____ _____    ______ ____
ROOT
ATOM      1  O   HOH     1      25.594  40.045  28.202  0.00  0.00    +0.000 OA
ENDROOT
TORSDOF 0
REMARK  Name = ../refined-set-2016/4mr3/4mr3_pocket.pdb
REMARK  119 active torsions:
REMARK  status: ('A' for Active; 'I' for Inactive)
REMARK    1  A    between atoms: _1  and  _3
REMARK    2  A    between atoms: _3  and  _4
REMARK    3  A    between atoms: _7  and  _9
REMARK    4  A    between atoms: _9  and  _10
REMARK    5  A    between atoms: _9  and  _12
REMARK    6  A    between atoms: _12  and  _13
REMARK    7  A    between atoms: _24  and  _25
REMARK    8  A    between atoms: _30  and  _32
REMARK    9  A    between atoms: _32  and  _33
REMARK   10  A    between atoms: _32  and  _35
REMARK   11  A    between atoms: _35  and  _36
REMARK   12  A    between atoms: _42  and  _44
REMARK   13  A    between atoms: _44  and  _45
REMARK   14  A    between atoms: _44  and  _47
REMARK   15  A    between atoms: _47  and  _48
REMARK   16  A    between atoms: _48  and  _49
REMARK   17  A    between atoms: _54  and  _56
REMARK   18  A    between atoms: _56  and  _57
REMARK   19  A    between atoms: _56  and  _59
REMARK   20  A    between atoms: _59  and  _60
REMARK   21  A    between atoms: _60  and  _61
REMARK   22  A    between atoms: _67  and  _68
REMARK   23  A    between atoms: _73  and  _75
REMARK   24  A    between atoms: _75  and  _76
REMARK   25  A    between atoms: _75  and  _78
REMARK   26  A    between atoms: _81  and  _83
REMARK   27  A    between atoms: _83  and  _84
REMARK   28  A    between atoms: _83  and  _86
REMARK   29  A    between atoms: _86  and  _87
REMARK   30  A    between atoms: _90  and  _92
REMARK   31  A    between atoms: _92  and  _93
REMARK   32  A    between atoms: _96  and  _98
REMARK   33  A    between atoms: _98  and  _99
REMARK   34  A    between atoms: _98  and  _101
REMARK   35  A    between atoms: _101  and  _102
REMARK   36  A    between atoms: _102  and  _103
REMARK   37  A    between atoms: _103  and  _104
REMARK   38  A    between atoms: _104  and  _105
REMARK   39  A    between atoms: _109  and  _111
REMARK   40  A    between atoms: _111  and  _112
REMARK   41  A    between atoms: _111  and  _114
REMARK   42  A    between atoms: _114  and  _115
REMARK   43  A    between atoms: _118  and  _120
REMARK   44  A    between atoms: _120  and  _121
REMARK   45  A    between atoms: _120  and  _123
REMARK   46  A    between atoms: _123  and  _124
REMARK   47  A    between atoms: _127  and  _129
REMARK   48  A    between atoms: _129  and  _130
REMARK   49  A    between atoms: _129  and  _132
REMARK   50  A    between atoms: _132  and  _133
REMARK   51  A    between atoms: _138  and  _139
REMARK   52  A    between atoms: _141  and  _143
REMARK   53  A    between atoms: _143  and  _144
REMARK   54  A    between atoms: _143  and  _146
REMARK   55  A    between atoms: _146  and  _147
REMARK   56  A    between atoms: _150  and  _152
REMARK   57  A    between atoms: _152  and  _153
REMARK   58  A    between atoms: _152  and  _155
REMARK   59  A    between atoms: _155  and  _156
REMARK   60  A    between atoms: _156  and  _157
REMARK   61  A    between atoms: _159  and  _161
REMARK   62  A    between atoms: _161  and  _162
REMARK   63  A    between atoms: _161  and  _164
REMARK   64  A    between atoms: _164  and  _165
REMARK   65  A    between atoms: _168  and  _170
REMARK   66  A    between atoms: _170  and  _171
REMARK   67  A    between atoms: _170  and  _173
REMARK   68  A    between atoms: _173  and  _174
REMARK   69  A    between atoms: _174  and  _175
REMARK   70  A    between atoms: _177  and  _179
REMARK   71  A    between atoms: _179  and  _180
REMARK   72  A    between atoms: _179  and  _182
REMARK   73  A    between atoms: _182  and  _183
REMARK   74  A    between atoms: _183  and  _184
REMARK   75  A    between atoms: _186  and  _188
REMARK   76  A    between atoms: _188  and  _189
REMARK   77  A    between atoms: _188  and  _191
REMARK   78  A    between atoms: _191  and  _192
REMARK   79  A    between atoms: _197  and  _199
REMARK   80  A    between atoms: _199  and  _200
REMARK   81  A    between atoms: _199  and  _202
REMARK   82  A    between atoms: _204  and  _206
REMARK   83  A    between atoms: _206  and  _207
REMARK   84  A    between atoms: _206  and  _209
REMARK   85  A    between atoms: _209  and  _210
REMARK   86  A    between atoms: _215  and  _216
REMARK   87  A    between atoms: _218  and  _220
REMARK   88  A    between atoms: _220  and  _221
REMARK   89  A    between atoms: _220  and  _223
REMARK   90  A    between atoms: _223  and  _224
REMARK   91  A    between atoms: _227  and  _229
REMARK   92  A    between atoms: _229  and  _230
REMARK   93  A    between atoms: _229  and  _232
REMARK   94  A    between atoms: _232  and  _233
REMARK   95  A    between atoms: _238  and  _239
REMARK   96  A    between atoms: _241  and  _243
REMARK   97  A    between atoms: _243  and  _244
REMARK   98  A    between atoms: _243  and  _246
REMARK   99  A    between atoms: _246  and  _247
REMARK  100  A    between atoms: _252  and  _254
REMARK  101  A    between atoms: _254  and  _255
REMARK  102  A    between atoms: _254  and  _257
REMARK  103  A    between atoms: _257  and  _258
REMARK  104  A    between atoms: _258  and  _259
REMARK  105  A    between atoms: _259  and  _260
REMARK  106  A    between atoms: _260  and  _261
REMARK  107  A    between atoms: _265  and  _267
REMARK  108  A    between atoms: _267  and  _268
REMARK  109  A    between atoms: _267  and  _270
REMARK  110  A    between atoms: _270  and  _271
REMARK  111  A    between atoms: _274  and  _276
REMARK  112  A    between atoms: _276  and  _277
REMARK  113  A    between atoms: _276  and  _279
REMARK  114  A    between atoms: _279  and  _280
REMARK  115  A    between atoms: _283  and  _285
REMARK  116  A    between atoms: _285  and  _286
REMARK  117  A    between atoms: _285  and  _288
REMARK  118  A    between atoms: _291  and  _293
REMARK  119  A    between atoms: _293  and  _294
REMARK                            x       y       z     vdW  Elec       q    Type
REMARK                         _______ _______ _______ _____ _____    ______ ____
ROOT
ATOM      1  O   HOH     1      19.960  39.683  25.025  0.00  0.00    +0.000 OA
ENDROOT
TORSDOF 0
REMARK  Name = ../refined-set-2016/4mr3/4mr3_pocket.pdb
REMARK  119 active torsions:
REMARK  status: ('A' for Active; 'I' for Inactive)
REMARK    1  A    between atoms: _1  and  _3
REMARK    2  A    between atoms: _3  and  _4
REMARK    3  A    between atoms: _7  and  _9
REMARK    4  A    between atoms: _9  and  _10
REMARK    5  A    between atoms: _9  and  _12
REMARK    6  A    between atoms: _12  and  _13
REMARK    7  A    between atoms: _24  and  _25
REMARK    8  A    between atoms: _30  and  _32
REMARK    9  A    between atoms: _32  and  _33
REMARK   10  A    between atoms: _32  and  _35
REMARK   11  A    between atoms: _35  and  _36
REMARK   12  A    between atoms: _42  and  _44
REMARK   13  A    between atoms: _44  and  _45
REMARK   14  A    between atoms: _44  and  _47
REMARK   15  A    between atoms: _47  and  _48
REMARK   16  A    between atoms: _48  and  _49
REMARK   17  A    between atoms: _54  and  _56
REMARK   18  A    between atoms: _56  and  _57
REMARK   19  A    between atoms: _56  and  _59
REMARK   20  A    between atoms: _59  and  _60
REMARK   21  A    between atoms: _60  and  _61
REMARK   22  A    between atoms: _67  and  _68
REMARK   23  A    between atoms: _73  and  _75
REMARK   24  A    between atoms: _75  and  _76
REMARK   25  A    between atoms: _75  and  _78
REMARK   26  A    between atoms: _81  and  _83
REMARK   27  A    between atoms: _83  and  _84
REMARK   28  A    between atoms: _83  and  _86
REMARK   29  A    between atoms: _86  and  _87
REMARK   30  A    between atoms: _90  and  _92
REMARK   31  A    between atoms: _92  and  _93
REMARK   32  A    between atoms: _96  and  _98
REMARK   33  A    between atoms: _98  and  _99
REMARK   34  A    between atoms: _98  and  _101
REMARK   35  A    between atoms: _101  and  _102
REMARK   36  A    between atoms: _102  and  _103
REMARK   37  A    between atoms: _103  and  _104
REMARK   38  A    between atoms: _104  and  _105
REMARK   39  A    between atoms: _109  and  _111
REMARK   40  A    between atoms: _111  and  _112
REMARK   41  A    between atoms: _111  and  _114
REMARK   42  A    between atoms: _114  and  _115
REMARK   43  A    between atoms: _118  and  _120
REMARK   44  A    between atoms: _120  and  _121
REMARK   45  A    between atoms: _120  and  _123
REMARK   46  A    between atoms: _123  and  _124
REMARK   47  A    between atoms: _127  and  _129
REMARK   48  A    between atoms: _129  and  _130
REMARK   49  A    between atoms: _129  and  _132
REMARK   50  A    between atoms: _132  and  _133
REMARK   51  A    between atoms: _138  and  _139
REMARK   52  A    between atoms: _141  and  _143
REMARK   53  A    between atoms: _143  and  _144
REMARK   54  A    between atoms: _143  and  _146
REMARK   55  A    between atoms: _146  and  _147
REMARK   56  A    between atoms: _150  and  _152
REMARK   57  A    between atoms: _152  and  _153
REMARK   58  A    between atoms: _152  and  _155
REMARK   59  A    between atoms: _155  and  _156
REMARK   60  A    between atoms: _156  and  _157
REMARK   61  A    between atoms: _159  and  _161
REMARK   62  A    between atoms: _161  and  _162
REMARK   63  A    between atoms: _161  and  _164
REMARK   64  A    between atoms: _164  and  _165
REMARK   65  A    between atoms: _168  and  _170
REMARK   66  A    between atoms: _170  and  _171
REMARK   67  A    between atoms: _170  and  _173
REMARK   68  A    between atoms: _173  and  _174
REMARK   69  A    between atoms: _174  and  _175
REMARK   70  A    between atoms: _177  and  _179
REMARK   71  A    between atoms: _179  and  _180
REMARK   72  A    between atoms: _179  and  _182
REMARK   73  A    between atoms: _182  and  _183
REMARK   74  A    between atoms: _183  and  _184
REMARK   75  A    between atoms: _186  and  _188
REMARK   76  A    between atoms: _188  and  _189
REMARK   77  A    between atoms: _188  and  _191
REMARK   78  A    between atoms: _191  and  _192
REMARK   79  A    between atoms: _197  and  _199
REMARK   80  A    between atoms: _199  and  _200
REMARK   81  A    between atoms: _199  and  _202
REMARK   82  A    between atoms: _204  and  _206
REMARK   83  A    between atoms: _206  and  _207
REMARK   84  A    between atoms: _206  and  _209
REMARK   85  A    between atoms: _209  and  _210
REMARK   86  A    between atoms: _215  and  _216
REMARK   87  A    between atoms: _218  and  _220
REMARK   88  A    between atoms: _220  and  _221
REMARK   89  A    between atoms: _220  and  _223
REMARK   90  A    between atoms: _223  and  _224
REMARK   91  A    between atoms: _227  and  _229
REMARK   92  A    between atoms: _229  and  _230
REMARK   93  A    between atoms: _229  and  _232
REMARK   94  A    between atoms: _232  and  _233
REMARK   95  A    between atoms: _238  and  _239
REMARK   96  A    between atoms: _241  and  _243
REMARK   97  A    between atoms: _243  and  _244
REMARK   98  A    between atoms: _243  and  _246
REMARK   99  A    between atoms: _246  and  _247
REMARK  100  A    between atoms: _252  and  _254
REMARK  101  A    between atoms: _254  and  _255
REMARK  102  A    between atoms: _254  and  _257
REMARK  103  A    between atoms: _257  and  _258
REMARK  104  A    between atoms: _258  and  _259
REMARK  105  A    between atoms: _259  and  _260
REMARK  106  A    between atoms: _260  and  _261
REMARK  107  A    between atoms: _265  and  _267
REMARK  108  A    between atoms: _267  and  _268
REMARK  109  A    between atoms: _267  and  _270
REMARK  110  A    between atoms: _270  and  _271
REMARK  111  A    between atoms: _274  and  _276
REMARK  112  A    between atoms: _276  and  _277
REMARK  113  A    between atoms: _276  and  _279
REMARK  114  A    between atoms: _279  and  _280
REMARK  115  A    between atoms: _283  and  _285
REMARK  116  A    between atoms: _285  and  _286
REMARK  117  A    between atoms: _285  and  _288
REMARK  118  A    between atoms: _291  and  _293
REMARK  119  A    between atoms: _293  and  _294
REMARK                            x       y       z     vdW  Elec       q    Type
REMARK                         _______ _______ _______ _____ _____    ______ ____
ROOT
ATOM      1  O   HOH     1      24.619  42.261  24.383  0.00  0.00    +0.000 OA
ENDROOT
TORSDOF 0
REMARK  Name = ../refined-set-2016/4mr3/4mr3_pocket.pdb
REMARK  119 active torsions:
REMARK  status: ('A' for Active; 'I' for Inactive)
REMARK    1  A    between atoms: _1  and  _3
REMARK    2  A    between atoms: _3  and  _4
REMARK    3  A    between atoms: _7  and  _9
REMARK    4  A    between atoms: _9  and  _10
REMARK    5  A    between atoms: _9  and  _12
REMARK    6  A    between atoms: _12  and  _13
REMARK    7  A    between atoms: _24  and  _25
REMARK    8  A    between atoms: _30  and  _32
REMARK    9  A    between atoms: _32  and  _33
REMARK   10  A    between atoms: _32  and  _35
REMARK   11  A    between atoms: _35  and  _36
REMARK   12  A    between atoms: _42  and  _44
REMARK   13  A    between atoms: _44  and  _45
REMARK   14  A    between atoms: _44  and  _47
REMARK   15  A    between atoms: _47  and  _48
REMARK   16  A    between atoms: _48  and  _49
REMARK   17  A    between atoms: _54  and  _56
REMARK   18  A    between atoms: _56  and  _57
REMARK   19  A    between atoms: _56  and  _59
REMARK   20  A    between atoms: _59  and  _60
REMARK   21  A    between atoms: _60  and  _61
REMARK   22  A    between atoms: _67  and  _68
REMARK   23  A    between atoms: _73  and  _75
REMARK   24  A    between atoms: _75  and  _76
REMARK   25  A    between atoms: _75  and  _78
REMARK   26  A    between atoms: _81  and  _83
REMARK   27  A    between atoms: _83  and  _84
REMARK   28  A    between atoms: _83  and  _86
REMARK   29  A    between atoms: _86  and  _87
REMARK   30  A    between atoms: _90  and  _92
REMARK   31  A    between atoms: _92  and  _93
REMARK   32  A    between atoms: _96  and  _98
REMARK   33  A    between atoms: _98  and  _99
REMARK   34  A    between atoms: _98  and  _101
REMARK   35  A    between atoms: _101  and  _102
REMARK   36  A    between atoms: _102  and  _103
REMARK   37  A    between atoms: _103  and  _104
REMARK   38  A    between atoms: _104  and  _105
REMARK   39  A    between atoms: _109  and  _111
REMARK   40  A    between atoms: _111  and  _112
REMARK   41  A    between atoms: _111  and  _114
REMARK   42  A    between atoms: _114  and  _115
REMARK   43  A    between atoms: _118  and  _120
REMARK   44  A    between atoms: _120  and  _121
REMARK   45  A    between atoms: _120  and  _123
REMARK   46  A    between atoms: _123  and  _124
REMARK   47  A    between atoms: _127  and  _129
REMARK   48  A    between atoms: _129  and  _130
REMARK   49  A    between atoms: _129  and  _132
REMARK   50  A    between atoms: _132  and  _133
REMARK   51  A    between atoms: _138  and  _139
REMARK   52  A    between atoms: _141  and  _143
REMARK   53  A    between atoms: _143  and  _144
REMARK   54  A    between atoms: _143  and  _146
REMARK   55  A    between atoms: _146  and  _147
REMARK   56  A    between atoms: _150  and  _152
REMARK   57  A    between atoms: _152  and  _153
REMARK   58  A    between atoms: _152  and  _155
REMARK   59  A    between atoms: _155  and  _156
REMARK   60  A    between atoms: _156  and  _157
REMARK   61  A    between atoms: _159  and  _161
REMARK   62  A    between atoms: _161  and  _162
REMARK   63  A    between atoms: _161  and  _164
REMARK   64  A    between atoms: _164  and  _165
REMARK   65  A    between atoms: _168  and  _170
REMARK   66  A    between atoms: _170  and  _171
REMARK   67  A    between atoms: _170  and  _173
REMARK   68  A    between atoms: _173  and  _174
REMARK   69  A    between atoms: _174  and  _175
REMARK   70  A    between atoms: _177  and  _179
REMARK   71  A    between atoms: _179  and  _180
REMARK   72  A    between atoms: _179  and  _182
REMARK   73  A    between atoms: _182  and  _183
REMARK   74  A    between atoms: _183  and  _184
REMARK   75  A    between atoms: _186  and  _188
REMARK   76  A    between atoms: _188  and  _189
REMARK   77  A    between atoms: _188  and  _191
REMARK   78  A    between atoms: _191  and  _192
REMARK   79  A    between atoms: _197  and  _199
REMARK   80  A    between atoms: _199  and  _200
REMARK   81  A    between atoms: _199  and  _202
REMARK   82  A    between atoms: _204  and  _206
REMARK   83  A    between atoms: _206  and  _207
REMARK   84  A    between atoms: _206  and  _209
REMARK   85  A    between atoms: _209  and  _210
REMARK   86  A    between atoms: _215  and  _216
REMARK   87  A    between atoms: _218  and  _220
REMARK   88  A    between atoms: _220  and  _221
REMARK   89  A    between atoms: _220  and  _223
REMARK   90  A    between atoms: _223  and  _224
REMARK   91  A    between atoms: _227  and  _229
REMARK   92  A    between atoms: _229  and  _230
REMARK   93  A    between atoms: _229  and  _232
REMARK   94  A    between atoms: _232  and  _233
REMARK   95  A    between atoms: _238  and  _239
REMARK   96  A    between atoms: _241  and  _243
REMARK   97  A    between atoms: _243  and  _244
REMARK   98  A    between atoms: _243  and  _246
REMARK   99  A    between atoms: _246  and  _247
REMARK  100  A    between atoms: _252  and  _254
REMARK  101  A    between atoms: _254  and  _255
REMARK  102  A    between atoms: _254  and  _257
REMARK  103  A    between atoms: _257  and  _258
REMARK  104  A    between atoms: _258  and  _259
REMARK  105  A    between atoms: _259  and  _260
REMARK  106  A    between atoms: _260  and  _261
REMARK  107  A    between atoms: _265  and  _267
REMARK  108  A    between atoms: _267  and  _268
REMARK  109  A    between atoms: _267  and  _270
REMARK  110  A    between atoms: _270  and  _271
REMARK  111  A    between atoms: _274  and  _276
REMARK  112  A    between atoms: _276  and  _277
REMARK  113  A    between atoms: _276  and  _279
REMARK  114  A    between atoms: _279  and  _280
REMARK  115  A    between atoms: _283  and  _285
REMARK  116  A    between atoms: _285  and  _286
REMARK  117  A    between atoms: _285  and  _288
REMARK  118  A    between atoms: _291  and  _293
REMARK  119  A    between atoms: _293  and  _294
REMARK                            x       y       z     vdW  Elec       q    Type
REMARK                         _______ _______ _______ _____ _____    ______ ____
ROOT
ATOM      1  O   HOH     1      21.977  35.984  26.807  0.00  0.00    +0.000 OA
ENDROOT
TORSDOF 0
REMARK  Name = ../refined-set-2016/4mr3/4mr3_pocket.pdb
REMARK  119 active torsions:
REMARK  status: ('A' for Active; 'I' for Inactive)
REMARK    1  A    between atoms: _1  and  _3
REMARK    2  A    between atoms: _3  and  _4
REMARK    3  A    between atoms: _7  and  _9
REMARK    4  A    between atoms: _9  and  _10
REMARK    5  A    between atoms: _9  and  _12
REMARK    6  A    between atoms: _12  and  _13
REMARK    7  A    between atoms: _24  and  _25
REMARK    8  A    between atoms: _30  and  _32
REMARK    9  A    between atoms: _32  and  _33
REMARK   10  A    between atoms: _32  and  _35
REMARK   11  A    between atoms: _35  and  _36
REMARK   12  A    between atoms: _42  and  _44
REMARK   13  A    between atoms: _44  and  _45
REMARK   14  A    between atoms: _44  and  _47
REMARK   15  A    between atoms: _47  and  _48
REMARK   16  A    between atoms: _48  and  _49
REMARK   17  A    between atoms: _54  and  _56
REMARK   18  A    between atoms: _56  and  _57
REMARK   19  A    between atoms: _56  and  _59
REMARK   20  A    between atoms: _59  and  _60
REMARK   21  A    between atoms: _60  and  _61
REMARK   22  A    between atoms: _67  and  _68
REMARK   23  A    between atoms: _73  and  _75
REMARK   24  A    between atoms: _75  and  _76
REMARK   25  A    between atoms: _75  and  _78
REMARK   26  A    between atoms: _81  and  _83
REMARK   27  A    between atoms: _83  and  _84
REMARK   28  A    between atoms: _83  and  _86
REMARK   29  A    between atoms: _86  and  _87
REMARK   30  A    between atoms: _90  and  _92
REMARK   31  A    between atoms: _92  and  _93
REMARK   32  A    between atoms: _96  and  _98
REMARK   33  A    between atoms: _98  and  _99
REMARK   34  A    between atoms: _98  and  _101
REMARK   35  A    between atoms: _101  and  _102
REMARK   36  A    between atoms: _102  and  _103
REMARK   37  A    between atoms: _103  and  _104
REMARK   38  A    between atoms: _104  and  _105
REMARK   39  A    between atoms: _109  and  _111
REMARK   40  A    between atoms: _111  and  _112
REMARK   41  A    between atoms: _111  and  _114
REMARK   42  A    between atoms: _114  and  _115
REMARK   43  A    between atoms: _118  and  _120
REMARK   44  A    between atoms: _120  and  _121
REMARK   45  A    between atoms: _120  and  _123
REMARK   46  A    between atoms: _123  and  _124
REMARK   47  A    between atoms: _127  and  _129
REMARK   48  A    between atoms: _129  and  _130
REMARK   49  A    between atoms: _129  and  _132
REMARK   50  A    between atoms: _132  and  _133
REMARK   51  A    between atoms: _138  and  _139
REMARK   52  A    between atoms: _141  and  _143
REMARK   53  A    between atoms: _143  and  _144
REMARK   54  A    between atoms: _143  and  _146
REMARK   55  A    between atoms: _146  and  _147
REMARK   56  A    between atoms: _150  and  _152
REMARK   57  A    between atoms: _152  and  _153
REMARK   58  A    between atoms: _152  and  _155
REMARK   59  A    between atoms: _155  and  _156
REMARK   60  A    between atoms: _156  and  _157
REMARK   61  A    between atoms: _159  and  _161
REMARK   62  A    between atoms: _161  and  _162
REMARK   63  A    between atoms: _161  and  _164
REMARK   64  A    between atoms: _164  and  _165
REMARK   65  A    between atoms: _168  and  _170
REMARK   66  A    between atoms: _170  and  _171
REMARK   67  A    between atoms: _170  and  _173
REMARK   68  A    between atoms: _173  and  _174
REMARK   69  A    between atoms: _174  and  _175
REMARK   70  A    between atoms: _177  and  _179
REMARK   71  A    between atoms: _179  and  _180
REMARK   72  A    between atoms: _179  and  _182
REMARK   73  A    between atoms: _182  and  _183
REMARK   74  A    between atoms: _183  and  _184
REMARK   75  A    between atoms: _186  and  _188
REMARK   76  A    between atoms: _188  and  _189
REMARK   77  A    between atoms: _188  and  _191
REMARK   78  A    between atoms: _191  and  _192
REMARK   79  A    between atoms: _197  and  _199
REMARK   80  A    between atoms: _199  and  _200
REMARK   81  A    between atoms: _199  and  _202
REMARK   82  A    between atoms: _204  and  _206
REMARK   83  A    between atoms: _206  and  _207
REMARK   84  A    between atoms: _206  and  _209
REMARK   85  A    between atoms: _209  and  _210
REMARK   86  A    between atoms: _215  and  _216
REMARK   87  A    between atoms: _218  and  _220
REMARK   88  A    between atoms: _220  and  _221
REMARK   89  A    between atoms: _220  and  _223
REMARK   90  A    between atoms: _223  and  _224
REMARK   91  A    between atoms: _227  and  _229
REMARK   92  A    between atoms: _229  and  _230
REMARK   93  A    between atoms: _229  and  _232
REMARK   94  A    between atoms: _232  and  _233
REMARK   95  A    between atoms: _238  and  _239
REMARK   96  A    between atoms: _241  and  _243
REMARK   97  A    between atoms: _243  and  _244
REMARK   98  A    between atoms: _243  and  _246
REMARK   99  A    between atoms: _246  and  _247
REMARK  100  A    between atoms: _252  and  _254
REMARK  101  A    between atoms: _254  and  _255
REMARK  102  A    between atoms: _254  and  _257
REMARK  103  A    between atoms: _257  and  _258
REMARK  104  A    between atoms: _258  and  _259
REMARK  105  A    between atoms: _259  and  _260
REMARK  106  A    between atoms: _260  and  _261
REMARK  107  A    between atoms: _265  and  _267
REMARK  108  A    between atoms: _267  and  _268
REMARK  109  A    between atoms: _267  and  _270
REMARK  110  A    between atoms: _270  and  _271
REMARK  111  A    between atoms: _274  and  _276
REMARK  112  A    between atoms: _276  and  _277
REMARK  113  A    between atoms: _276  and  _279
REMARK  114  A    between atoms: _279  and  _280
REMARK  115  A    between atoms: _283  and  _285
REMARK  116  A    between atoms: _285  and  _286
REMARK  117  A    between atoms: _285  and  _288
REMARK  118  A    between atoms: _291  and  _293
REMARK  119  A    between atoms: _293  and  _294
REMARK                            x       y       z     vdW  Elec       q    Type
REMARK                         _______ _______ _______ _____ _____    ______ ____
ROOT
ATOM      1  O   HOH     1      18.578  33.142  20.633  0.00  0.00    +0.000 OA
ENDROOT
TORSDOF 0
REMARK  Name = ../refined-set-2016/4mr3/4mr3_pocket.pdb
REMARK  119 active torsions:
REMARK  status: ('A' for Active; 'I' for Inactive)
REMARK    1  A    between atoms: _1  and  _3
REMARK    2  A    between atoms: _3  and  _4
REMARK    3  A    between atoms: _7  and  _9
REMARK    4  A    between atoms: _9  and  _10
REMARK    5  A    between atoms: _9  and  _12
REMARK    6  A    between atoms: _12  and  _13
REMARK    7  A    between atoms: _24  and  _25
REMARK    8  A    between atoms: _30  and  _32
REMARK    9  A    between atoms: _32  and  _33
REMARK   10  A    between atoms: _32  and  _35
REMARK   11  A    between atoms: _35  and  _36
REMARK   12  A    between atoms: _42  and  _44
REMARK   13  A    between atoms: _44  and  _45
REMARK   14  A    between atoms: _44  and  _47
REMARK   15  A    between atoms: _47  and  _48
REMARK   16  A    between atoms: _48  and  _49
REMARK   17  A    between atoms: _54  and  _56
REMARK   18  A    between atoms: _56  and  _57
REMARK   19  A    between atoms: _56  and  _59
REMARK   20  A    between atoms: _59  and  _60
REMARK   21  A    between atoms: _60  and  _61
REMARK   22  A    between atoms: _67  and  _68
REMARK   23  A    between atoms: _73  and  _75
REMARK   24  A    between atoms: _75  and  _76
REMARK   25  A    between atoms: _75  and  _78
REMARK   26  A    between atoms: _81  and  _83
REMARK   27  A    between atoms: _83  and  _84
REMARK   28  A    between atoms: _83  and  _86
REMARK   29  A    between atoms: _86  and  _87
REMARK   30  A    between atoms: _90  and  _92
REMARK   31  A    between atoms: _92  and  _93
REMARK   32  A    between atoms: _96  and  _98
REMARK   33  A    between atoms: _98  and  _99
REMARK   34  A    between atoms: _98  and  _101
REMARK   35  A    between atoms: _101  and  _102
REMARK   36  A    between atoms: _102  and  _103
REMARK   37  A    between atoms: _103  and  _104
REMARK   38  A    between atoms: _104  and  _105
REMARK   39  A    between atoms: _109  and  _111
REMARK   40  A    between atoms: _111  and  _112
REMARK   41  A    between atoms: _111  and  _114
REMARK   42  A    between atoms: _114  and  _115
REMARK   43  A    between atoms: _118  and  _120
REMARK   44  A    between atoms: _120  and  _121
REMARK   45  A    between atoms: _120  and  _123
REMARK   46  A    between atoms: _123  and  _124
REMARK   47  A    between atoms: _127  and  _129
REMARK   48  A    between atoms: _129  and  _130
REMARK   49  A    between atoms: _129  and  _132
REMARK   50  A    between atoms: _132  and  _133
REMARK   51  A    between atoms: _138  and  _139
REMARK   52  A    between atoms: _141  and  _143
REMARK   53  A    between atoms: _143  and  _144
REMARK   54  A    between atoms: _143  and  _146
REMARK   55  A    between atoms: _146  and  _147
REMARK   56  A    between atoms: _150  and  _152
REMARK   57  A    between atoms: _152  and  _153
REMARK   58  A    between atoms: _152  and  _155
REMARK   59  A    between atoms: _155  and  _156
REMARK   60  A    between atoms: _156  and  _157
REMARK   61  A    between atoms: _159  and  _161
REMARK   62  A    between atoms: _161  and  _162
REMARK   63  A    between atoms: _161  and  _164
REMARK   64  A    between atoms: _164  and  _165
REMARK   65  A    between atoms: _168  and  _170
REMARK   66  A    between atoms: _170  and  _171
REMARK   67  A    between atoms: _170  and  _173
REMARK   68  A    between atoms: _173  and  _174
REMARK   69  A    between atoms: _174  and  _175
REMARK   70  A    between atoms: _177  and  _179
REMARK   71  A    between atoms: _179  and  _180
REMARK   72  A    between atoms: _179  and  _182
REMARK   73  A    between atoms: _182  and  _183
REMARK   74  A    between atoms: _183  and  _184
REMARK   75  A    between atoms: _186  and  _188
REMARK   76  A    between atoms: _188  and  _189
REMARK   77  A    between atoms: _188  and  _191
REMARK   78  A    between atoms: _191  and  _192
REMARK   79  A    between atoms: _197  and  _199
REMARK   80  A    between atoms: _199  and  _200
REMARK   81  A    between atoms: _199  and  _202
REMARK   82  A    between atoms: _204  and  _206
REMARK   83  A    between atoms: _206  and  _207
REMARK   84  A    between atoms: _206  and  _209
REMARK   85  A    between atoms: _209  and  _210
REMARK   86  A    between atoms: _215  and  _216
REMARK   87  A    between atoms: _218  and  _220
REMARK   88  A    between atoms: _220  and  _221
REMARK   89  A    between atoms: _220  and  _223
REMARK   90  A    between atoms: _223  and  _224
REMARK   91  A    between atoms: _227  and  _229
REMARK   92  A    between atoms: _229  and  _230
REMARK   93  A    between atoms: _229  and  _232
REMARK   94  A    between atoms: _232  and  _233
REMARK   95  A    between atoms: _238  and  _239
REMARK   96  A    between atoms: _241  and  _243
REMARK   97  A    between atoms: _243  and  _244
REMARK   98  A    between atoms: _243  and  _246
REMARK   99  A    between atoms: _246  and  _247
REMARK  100  A    between atoms: _252  and  _254
REMARK  101  A    between atoms: _254  and  _255
REMARK  102  A    between atoms: _254  and  _257
REMARK  103  A    between atoms: _257  and  _258
REMARK  104  A    between atoms: _258  and  _259
REMARK  105  A    between atoms: _259  and  _260
REMARK  106  A    between atoms: _260  and  _261
REMARK  107  A    between atoms: _265  and  _267
REMARK  108  A    between atoms: _267  and  _268
REMARK  109  A    between atoms: _267  and  _270
REMARK  110  A    between atoms: _270  and  _271
REMARK  111  A    between atoms: _274  and  _276
REMARK  112  A    between atoms: _276  and  _277
REMARK  113  A    between atoms: _276  and  _279
REMARK  114  A    between atoms: _279  and  _280
REMARK  115  A    between atoms: _283  and  _285
REMARK  116  A    between atoms: _285  and  _286
REMARK  117  A    between atoms: _285  and  _288
REMARK  118  A    between atoms: _291  and  _293
REMARK  119  A    between atoms: _293  and  _294
REMARK                            x       y       z     vdW  Elec       q    Type
REMARK                         _______ _______ _______ _____ _____    ______ ____
ROOT
ATOM      1  O   HOH     1      16.072  39.669  23.469  0.00  0.00    +0.000 OA
ENDROOT
TORSDOF 0
